version 3
run General-0-20230420-12:56:46-30884
attr configname General
attr datetime 20230420-12:56:46
attr datetimef 20230420-125646
attr experiment General
attr inifile omnetpp.ini
attr iterationvars "$0=\"avg\""
attr iterationvarsd avg
attr iterationvarsf avg-
attr measurement "$0=\"avg\""
attr network flora.simulations.LoRaNetworkTest
attr processid 30884
attr repetition 0
attr replication #0
attr resultdir results
attr runnumber 0
attr seedset 0
config image-path ../../../Downloads/omnetpp-6.0.1/samples/inet4.4/images
config network flora.simulations.LoRaNetworkTest
config **.maxTransmissionDuration 4s
config **.energyDetection -110dBm
config **.vector-recording true
config rng-class cMersenneTwister
config **.loRaGW[*].numUdpApps 1
config **.loRaGW[0].packetForwarder.localPort 2000
config **.loRaGW[0].packetForwarder.destPort 1000
config **.loRaGW[0].packetForwarder.destAddresses "\"networkServer\""
config **.loRaGW[0].packetForwarder.indexNumber 0
config **.networkServer.numApps 1
config **.networkServer.**.evaluateADRinServer true
config **.networkServer.app[0].typename NetworkServerApp
config **.networkServer.app[0].destAddresses "\"loRaGW[0]\""
config **.networkServer.app[0].destPort 2000
config **.networkServer.app[0].localPort 1000
config **.networkServer.app[0].adrMethod "\"avg\""
config **.numberOfPacketsToSend 0
config sim-time-limit 1d
config simtime-resolution -11
config repeat 30
config **.timeToFirstPacket exponential(1000s)
config **.timeToNextPacket exponential(1000s)
config **.alohaChannelModel false
config **.numberOfNodes 1
config **.constraintAreaMaxX 1000m
config **.constraintAreaMaxY 1000m
config **.loRaNodes[0].**.initialX 300m
config **.loRaNodes[0].**.initialY 350m
config **.loRaNodes[0].**initialLoRaSF 12
config **.loRaNodes[0].**initialLoRaTP 14dBm
config **.loRaNodes[0].**initialLoRaBW "125 kHz"
config **.loRaNodes[0].**initialLoRaCR 4
config **.loRaNodes[0].**.initFromDisplayString false
config **.loRaNodes[0].**.evaluateADRinNode true
config **.loRaNodes[*].numApps 1
config **.loRaNodes[*].app[0].typename SimpleLoRaApp
config **.numberOfGateways 1
config **.loRaGW[0].**.initialX 200.00m
config **.loRaGW[0].**.initialY 200.00m
config **.LoRaGWNic.radio.iAmGateway true
config **.loRaGW[*].**.initFromDisplayString false
config **.loRaNodes[*].LoRaNic.radio.energyConsumer.typename LoRaEnergyConsumer
config **.loRaNodes[*].**.energySourceModule "\"^.IdealEpEnergyStorage\""
config **.loRaNodes[*].LoRaNic.radio.energyConsumer.configFile "xmldoc(\"energyConsumptionParameters.xml\")"
config **.sigma 3.57
config **.constraintAreaMinX 0m
config **.constraintAreaMinY 0m
config **.constraintAreaMinZ 0m
config **.constraintAreaMaxZ 0m
config LoRaNetworkTest.**.radio.separateTransmissionParts false
config LoRaNetworkTest.**.radio.separateReceptionParts false
config **.ipv4Delayer.config "xmldoc(\"cloudDelays.xml\")"
config **.radio.radioMediumModule "\"LoRaMedium\""
config **.LoRaMedium.pathLossType "\"LoRaLogNormalShadowing\""
config **.minInterferenceTime 0s
config **.displayAddresses false
config **.LoRaMedium.mediumLimitCacheType "\"LoRaMediumCache\""
config **.LoRaMedium.rangeFilter "\"communicationRange\""
config **.LoRaMedium.neighborCacheType "\"LoRaNeighborCache\""
config **.LoRaMedium.neighborCache.range 546m
config **.LoRaMedium.neighborCache.refillPeriod 3000s

par LoRaNetworkTest.networkServer.ethg$o[0].channel typename "\"inet.node.ethernet.Eth1G\""
par LoRaNetworkTest.networkServer.ethg$o[0].channel disabled false
attr mutable ""
par LoRaNetworkTest.networkServer.ethg$o[0].channel delay 5e-08s
attr mutable ""
attr unit s
par LoRaNetworkTest.networkServer.ethg$o[0].channel datarate 1e+09bps
attr mutable ""
attr unit bps
par LoRaNetworkTest.networkServer.ethg$o[0].channel ber 0
attr mutable ""
par LoRaNetworkTest.networkServer.ethg$o[0].channel per 0
attr mutable ""
par LoRaNetworkTest.networkServer.ethg$o[0].channel length 10m
attr unit m
par LoRaNetworkTest.nsRouter.ethg$o[0].channel typename "\"inet.node.ethernet.Eth1G\""
par LoRaNetworkTest.nsRouter.ethg$o[0].channel disabled false
attr mutable ""
par LoRaNetworkTest.nsRouter.ethg$o[0].channel delay 5e-08s
attr mutable ""
attr unit s
par LoRaNetworkTest.nsRouter.ethg$o[0].channel datarate 1e+09bps
attr mutable ""
attr unit bps
par LoRaNetworkTest.nsRouter.ethg$o[0].channel ber 0
attr mutable ""
par LoRaNetworkTest.nsRouter.ethg$o[0].channel per 0
attr mutable ""
par LoRaNetworkTest.nsRouter.ethg$o[0].channel length 10m
attr unit m
par LoRaNetworkTest.nsRouter.pppg$o[0].channel typename "\"inet.node.ethernet.Eth1G\""
par LoRaNetworkTest.nsRouter.pppg$o[0].channel disabled false
attr mutable ""
par LoRaNetworkTest.nsRouter.pppg$o[0].channel delay 5e-08s
attr mutable ""
attr unit s
par LoRaNetworkTest.nsRouter.pppg$o[0].channel datarate 1e+09bps
attr mutable ""
attr unit bps
par LoRaNetworkTest.nsRouter.pppg$o[0].channel ber 0
attr mutable ""
par LoRaNetworkTest.nsRouter.pppg$o[0].channel per 0
attr mutable ""
par LoRaNetworkTest.nsRouter.pppg$o[0].channel length 10m
attr unit m
par LoRaNetworkTest.internetCloud.pppg$o[0].channel typename "\"inet.node.ethernet.Eth1G\""
par LoRaNetworkTest.internetCloud.pppg$o[0].channel disabled false
attr mutable ""
par LoRaNetworkTest.internetCloud.pppg$o[0].channel delay 5e-08s
attr mutable ""
attr unit s
par LoRaNetworkTest.internetCloud.pppg$o[0].channel datarate 1e+09bps
attr mutable ""
attr unit bps
par LoRaNetworkTest.internetCloud.pppg$o[0].channel ber 0
attr mutable ""
par LoRaNetworkTest.internetCloud.pppg$o[0].channel per 0
attr mutable ""
par LoRaNetworkTest.internetCloud.pppg$o[0].channel length 10m
attr unit m
par LoRaNetworkTest.internetCloud.pppg$o[1].channel typename "\"inet.node.ethernet.Eth1G\""
par LoRaNetworkTest.internetCloud.pppg$o[1].channel disabled false
attr mutable ""
par LoRaNetworkTest.internetCloud.pppg$o[1].channel delay 5e-08s
attr mutable ""
attr unit s
par LoRaNetworkTest.internetCloud.pppg$o[1].channel datarate 1e+09bps
attr mutable ""
attr unit bps
par LoRaNetworkTest.internetCloud.pppg$o[1].channel ber 0
attr mutable ""
par LoRaNetworkTest.internetCloud.pppg$o[1].channel per 0
attr mutable ""
par LoRaNetworkTest.internetCloud.pppg$o[1].channel length 10m
attr unit m
par LoRaNetworkTest.gwRouter[0].pppg$o[0].channel typename "\"inet.node.ethernet.Eth1G\""
par LoRaNetworkTest.gwRouter[0].pppg$o[0].channel disabled false
attr mutable ""
par LoRaNetworkTest.gwRouter[0].pppg$o[0].channel delay 5e-08s
attr mutable ""
attr unit s
par LoRaNetworkTest.gwRouter[0].pppg$o[0].channel datarate 1e+09bps
attr mutable ""
attr unit bps
par LoRaNetworkTest.gwRouter[0].pppg$o[0].channel ber 0
attr mutable ""
par LoRaNetworkTest.gwRouter[0].pppg$o[0].channel per 0
attr mutable ""
par LoRaNetworkTest.gwRouter[0].pppg$o[0].channel length 10m
attr unit m
par LoRaNetworkTest.gwRouter[0].ethg$o[0].channel typename "\"inet.node.ethernet.Eth1G\""
par LoRaNetworkTest.gwRouter[0].ethg$o[0].channel disabled false
attr mutable ""
par LoRaNetworkTest.gwRouter[0].ethg$o[0].channel delay 5e-08s
attr mutable ""
attr unit s
par LoRaNetworkTest.gwRouter[0].ethg$o[0].channel datarate 1e+09bps
attr mutable ""
attr unit bps
par LoRaNetworkTest.gwRouter[0].ethg$o[0].channel ber 0
attr mutable ""
par LoRaNetworkTest.gwRouter[0].ethg$o[0].channel per 0
attr mutable ""
par LoRaNetworkTest.gwRouter[0].ethg$o[0].channel length 10m
attr unit m
par LoRaNetworkTest.loRaGW[0].ethg$o[0].channel typename "\"inet.node.ethernet.Eth1G\""
par LoRaNetworkTest.loRaGW[0].ethg$o[0].channel disabled false
attr mutable ""
par LoRaNetworkTest.loRaGW[0].ethg$o[0].channel delay 5e-08s
attr mutable ""
attr unit s
par LoRaNetworkTest.loRaGW[0].ethg$o[0].channel datarate 1e+09bps
attr mutable ""
attr unit bps
par LoRaNetworkTest.loRaGW[0].ethg$o[0].channel ber 0
attr mutable ""
par LoRaNetworkTest.loRaGW[0].ethg$o[0].channel per 0
attr mutable ""
par LoRaNetworkTest.loRaGW[0].ethg$o[0].channel length 10m
attr unit m
par LoRaNetworkTest.loRaNodes[0].interfaceTable typename "\"inet.networklayer.common.InterfaceTable\""
par LoRaNetworkTest.loRaNodes[0].interfaceTable displayAddresses false
par LoRaNetworkTest.loRaNodes[0].mobility typename "\"inet.mobility.static.StationaryMobility\""
par LoRaNetworkTest.loRaNodes[0].mobility subjectModule "\"^\""
par LoRaNetworkTest.loRaNodes[0].mobility coordinateSystemModule "\"\""
par LoRaNetworkTest.loRaNodes[0].mobility displayStringTextFormat "\"p: %p\\nv: %v\""
attr mutable ""
par LoRaNetworkTest.loRaNodes[0].mobility updateDisplayString true
par LoRaNetworkTest.loRaNodes[0].mobility constraintAreaMinX 0m
attr unit m
par LoRaNetworkTest.loRaNodes[0].mobility constraintAreaMinY 0m
attr unit m
par LoRaNetworkTest.loRaNodes[0].mobility constraintAreaMinZ 0m
attr unit m
par LoRaNetworkTest.loRaNodes[0].mobility constraintAreaMaxX 1000m
attr unit m
par LoRaNetworkTest.loRaNodes[0].mobility constraintAreaMaxY 1000m
attr unit m
par LoRaNetworkTest.loRaNodes[0].mobility constraintAreaMaxZ 0m
attr unit m
par LoRaNetworkTest.loRaNodes[0].mobility initialX 300m
attr unit m
par LoRaNetworkTest.loRaNodes[0].mobility initialY 350m
attr unit m
par LoRaNetworkTest.loRaNodes[0].mobility initialZ 0m
attr unit m
par LoRaNetworkTest.loRaNodes[0].mobility initialLatitude "nan deg"
attr unit deg
par LoRaNetworkTest.loRaNodes[0].mobility initialLongitude "nan deg"
attr unit deg
par LoRaNetworkTest.loRaNodes[0].mobility initialAltitude 0m
attr unit m
par LoRaNetworkTest.loRaNodes[0].mobility initialHeading 0deg
attr unit deg
par LoRaNetworkTest.loRaNodes[0].mobility initialElevation 0deg
attr unit deg
par LoRaNetworkTest.loRaNodes[0].mobility initialBank 0deg
attr unit deg
par LoRaNetworkTest.loRaNodes[0].mobility initFromDisplayString false
par LoRaNetworkTest.loRaNodes[0].mobility updateFromDisplayString true
par LoRaNetworkTest.loRaNodes[0].LoRaNic.radioIn.channel typename "\"ned.IdealChannel\""
par LoRaNetworkTest.loRaNodes[0].LoRaNic.mac.upperLayerOut.channel typename "\"ned.IdealChannel\""
par LoRaNetworkTest.loRaNodes[0].LoRaNic.upperLayerIn.channel typename "\"ned.IdealChannel\""
par LoRaNetworkTest.loRaNodes[0].LoRaNic.queue typename "\"inet.queueing.queue.DropTailQueue\""
par LoRaNetworkTest.loRaNodes[0].LoRaNic.queue displayStringTextFormat "\"contains %p pk (%l) pushed %u\\npulled %o removed %r dropped %d\""
par LoRaNetworkTest.loRaNodes[0].LoRaNic.queue packetCapacity -1
par LoRaNetworkTest.loRaNodes[0].LoRaNic.queue dataCapacity -1b
attr unit b
par LoRaNetworkTest.loRaNodes[0].LoRaNic.queue dropperClass "\"inet::queueing::PacketAtCollectionEndDropper\""
par LoRaNetworkTest.loRaNodes[0].LoRaNic.queue comparatorClass "\"\""
par LoRaNetworkTest.loRaNodes[0].LoRaNic.queue bufferModule "\"\""
scalar LoRaNetworkTest.loRaNodes[0].LoRaNic.queue queueLength:last 0
attr autoWarmupFilter false
attr interpolationmode sample-hold
attr recordingmode last
attr source "warmup(atomic(constant0(packetPushEnded) + count(packetPushStarted) - count(packetPulled) - count(packetRemoved) - count(packetDropped)))"
attr title "queue length, last"
attr unit pk
scalar LoRaNetworkTest.loRaNodes[0].LoRaNic.queue queueLength:max 0
attr autoWarmupFilter false
attr interpolationmode sample-hold
attr recordingmode max
attr source "warmup(atomic(constant0(packetPushEnded) + count(packetPushStarted) - count(packetPulled) - count(packetRemoved) - count(packetDropped)))"
attr title "queue length, max"
attr unit pk
scalar LoRaNetworkTest.loRaNodes[0].LoRaNic.queue queueLength:timeavg 0
attr autoWarmupFilter false
attr interpolationmode sample-hold
attr recordingmode timeavg
attr source "warmup(atomic(constant0(packetPushEnded) + count(packetPushStarted) - count(packetPulled) - count(packetRemoved) - count(packetDropped)))"
attr title "queue length, timeavg"
attr unit pk
scalar LoRaNetworkTest.loRaNodes[0].LoRaNic.queue queueBitLength:last 0
attr autoWarmupFilter false
attr interpolationmode sample-hold
attr recordingmode last
attr source "warmup(atomic(constant0(packetPushEnded) + sum(packetLength(packetPushStarted)) - sum(packetLength(packetPulled)) - sum(packetLength(packetRemoved)) - sum(packetLength(packetDropped))))"
attr title "queue bit length, last"
attr unit b
scalar LoRaNetworkTest.loRaNodes[0].LoRaNic.queue queueBitLength:max 0
attr autoWarmupFilter false
attr interpolationmode sample-hold
attr recordingmode max
attr source "warmup(atomic(constant0(packetPushEnded) + sum(packetLength(packetPushStarted)) - sum(packetLength(packetPulled)) - sum(packetLength(packetRemoved)) - sum(packetLength(packetDropped))))"
attr title "queue bit length, max"
attr unit b
scalar LoRaNetworkTest.loRaNodes[0].LoRaNic.queue queueBitLength:timeavg 0
attr autoWarmupFilter false
attr interpolationmode sample-hold
attr recordingmode timeavg
attr source "warmup(atomic(constant0(packetPushEnded) + sum(packetLength(packetPushStarted)) - sum(packetLength(packetPulled)) - sum(packetLength(packetRemoved)) - sum(packetLength(packetDropped))))"
attr title "queue bit length, timeavg"
attr unit b
statistic LoRaNetworkTest.loRaNodes[0].LoRaNic.queue queueingTime:histogram
field count 1
field mean 0
field stddev nan
field min 0
field max 0
field sum 0
field sqrsum 0
attr interpolationmode none
attr recordingmode histogram
attr source queueingTime(packetPulled)
attr title "queueing times"
attr unit s
bin	-inf	0
bin	-0.5	0
bin	-0.48	0
bin	-0.46	0
bin	-0.44	0
bin	-0.42	0
bin	-0.4	0
bin	-0.38	0
bin	-0.36	0
bin	-0.34	0
bin	-0.32	0
bin	-0.3	0
bin	-0.28	0
bin	-0.26	0
bin	-0.24	0
bin	-0.22	0
bin	-0.2	0
bin	-0.18	0
bin	-0.16	0
bin	-0.14	0
bin	-0.12	0
bin	-0.1	0
bin	-0.08	0
bin	-0.06	0
bin	-0.04	0
bin	-0.02	0
bin	0	1
bin	0.02	0
bin	0.04	0
bin	0.06	0
bin	0.08	0
bin	0.1	0
bin	0.12	0
bin	0.14	0
bin	0.16	0
bin	0.18	0
bin	0.2	0
bin	0.22	0
bin	0.24	0
bin	0.26	0
bin	0.28	0
bin	0.3	0
bin	0.32	0
bin	0.34	0
bin	0.36	0
bin	0.38	0
bin	0.4	0
bin	0.42	0
bin	0.44	0
bin	0.46	0
bin	0.48	0
bin	0.5	0
scalar LoRaNetworkTest.loRaNodes[0].LoRaNic.queue outgoingPackets:count 1
attr recordingmode count
attr source packetPulled
attr title "outgoing packets, count"
attr unit pk
scalar LoRaNetworkTest.loRaNodes[0].LoRaNic.queue outgoingPacketLengths:sum 80
attr interpolationmode none
attr recordingmode sum
attr source packetLength(packetPulled)
attr title "outgoing packet lengths, sum"
attr unit b
statistic LoRaNetworkTest.loRaNodes[0].LoRaNic.queue outgoingPacketLengths:histogram
field count 1
field mean 80
field stddev nan
field min 80
field max 80
field sum 80
field sqrsum 6400
attr interpolationmode none
attr recordingmode histogram
attr source packetLength(packetPulled)
attr title "outgoing packet lengths"
attr unit b
bin	-inf	0
bin	79	0
bin	80	1
bin	81	0
statistic LoRaNetworkTest.loRaNodes[0].LoRaNic.queue flowQueueingTime:histogram
field count 0
field mean nan
field stddev nan
field min nan
field max nan
field sum 0
field sqrsum 0
attr interpolationmode none
attr recordingmode histogram
attr source queueingTime(demuxFlow(packetPulled))
attr title "flow queueing times"
attr unit s
bin	-inf	0
bin	0	0
bin	1	0
scalar LoRaNetworkTest.loRaNodes[0].LoRaNic.queue incomingPackets:count 1
attr recordingmode count
attr source packetPushStarted
attr title "incoming packets, count"
attr unit pk
scalar LoRaNetworkTest.loRaNodes[0].LoRaNic.queue incomingPacketLengths:sum 80
attr interpolationmode none
attr recordingmode sum
attr source packetLength(packetPushStarted)
attr title "incoming packet lengths, sum"
attr unit b
statistic LoRaNetworkTest.loRaNodes[0].LoRaNic.queue incomingPacketLengths:histogram
field count 1
field mean 80
field stddev nan
field min 80
field max 80
field sum 80
field sqrsum 6400
attr interpolationmode none
attr recordingmode histogram
attr source packetLength(packetPushStarted)
attr title "incoming packet lengths"
attr unit b
bin	-inf	0
bin	79	0
bin	80	1
bin	81	0
scalar LoRaNetworkTest.loRaNodes[0].LoRaNic.queue droppedPacketsQueueOverflow:count 0
attr interpolationmode none
attr recordingmode count
attr source packetDropReasonIsQueueOverflow(packetDropped)
attr title "dropped packets: queue overflow, count"
attr unit pk
scalar LoRaNetworkTest.loRaNodes[0].LoRaNic.queue droppedPacketLengthsQueueOverflow:sum 0
attr interpolationmode none
attr recordingmode sum
attr source packetLength(packetDropReasonIsQueueOverflow(packetDropped))
attr title "dropped packet lengths: queue overflow, sum"
attr unit b
par LoRaNetworkTest.loRaNodes[0].LoRaNic.mac typename "\"flora.LoRa.LoRaMac\""
par LoRaNetworkTest.loRaNodes[0].LoRaNic.mac interfaceTableModule "\"LoRaNetworkTest.loRaNodes[0].interfaceTable\""
par LoRaNetworkTest.loRaNodes[0].LoRaNic.mac radioModule "\"^.radio\""
par LoRaNetworkTest.loRaNodes[0].LoRaNic.mac address "\"0A-AA-00-00-00-01\""
attr mutable ""
par LoRaNetworkTest.loRaNodes[0].LoRaNic.mac fcsMode "\"declared\""
attr enum declared,computed
par LoRaNetworkTest.loRaNodes[0].LoRaNic.mac useAck true
par LoRaNetworkTest.loRaNodes[0].LoRaNic.mac bitrate 250bps
attr unit bps
par LoRaNetworkTest.loRaNodes[0].LoRaNic.mac headerLength 17B
attr unit B
par LoRaNetworkTest.loRaNodes[0].LoRaNic.mac ackLength 14B
attr unit B
par LoRaNetworkTest.loRaNodes[0].LoRaNic.mac sifsTime 1e-05s
attr unit s
par LoRaNetworkTest.loRaNodes[0].LoRaNic.mac slotTime 2e-05s
attr unit s
par LoRaNetworkTest.loRaNodes[0].LoRaNic.mac difsTime 5e-05s
attr unit s
par LoRaNetworkTest.loRaNodes[0].LoRaNic.mac ackTimeout 0.44803s
attr unit s
par LoRaNetworkTest.loRaNodes[0].LoRaNic.mac mtu 1500
par LoRaNetworkTest.loRaNodes[0].LoRaNic.mac cwMin 31
par LoRaNetworkTest.loRaNodes[0].LoRaNic.mac cwMax 1023
par LoRaNetworkTest.loRaNodes[0].LoRaNic.mac cwMulticast 31
par LoRaNetworkTest.loRaNodes[0].LoRaNic.mac retryLimit 7
scalar LoRaNetworkTest.loRaNodes[0].LoRaNic.mac numRetry 0
scalar LoRaNetworkTest.loRaNodes[0].LoRaNic.mac numSentWithoutRetry 0
scalar LoRaNetworkTest.loRaNodes[0].LoRaNic.mac numGivenUp 0
scalar LoRaNetworkTest.loRaNodes[0].LoRaNic.mac numSent 1
scalar LoRaNetworkTest.loRaNodes[0].LoRaNic.mac numReceived 0
scalar LoRaNetworkTest.loRaNodes[0].LoRaNic.mac numSentBroadcast 0
scalar LoRaNetworkTest.loRaNodes[0].LoRaNic.mac numReceivedBroadcast 0
scalar LoRaNetworkTest.loRaNodes[0].LoRaNic.mac packetDropIncorrectlyReceived:count 0
attr interpolationmode none
attr recordingmode count
attr source packetDropReasonIsIncorrectlyReceived(packetDropped)
attr title "packet drop: incorrectly received, count"
scalar LoRaNetworkTest.loRaNodes[0].LoRaNic.mac packetDropIncorrectlyReceived:sum(packetBytes) 0
attr interpolationmode none
attr recordingmode sum(packetBytes)
attr source packetDropReasonIsIncorrectlyReceived(packetDropped)
attr title "packet drop: incorrectly received, sum(packetBytes)"
scalar LoRaNetworkTest.loRaNodes[0].LoRaNic.mac packetDropNotAddressedToUs:count 0
attr interpolationmode none
attr recordingmode count
attr source packetDropReasonIsNotAddressedToUs(packetDropped)
attr title "packet drop: not addressed to us, count"
scalar LoRaNetworkTest.loRaNodes[0].LoRaNic.mac packetDropNotAddressedToUs:sum(packetBytes) 0
attr interpolationmode none
attr recordingmode sum(packetBytes)
attr source packetDropReasonIsNotAddressedToUs(packetDropped)
attr title "packet drop: not addressed to us, sum(packetBytes)"
scalar LoRaNetworkTest.loRaNodes[0].LoRaNic.mac packetDropQueueOverflow:count 0
attr interpolationmode none
attr recordingmode count
attr source packetDropReasonIsQueueOverflow(packetDropped)
attr title "packet drop: queue overflow, count"
scalar LoRaNetworkTest.loRaNodes[0].LoRaNic.mac packetDropQueueOverflow:sum(packetBytes) 0
attr interpolationmode none
attr recordingmode sum(packetBytes)
attr source packetDropReasonIsQueueOverflow(packetDropped)
attr title "packet drop: queue overflow, sum(packetBytes)"
scalar LoRaNetworkTest.loRaNodes[0].LoRaNic.mac packetDropRetryLimitReached:count 0
attr interpolationmode none
attr recordingmode count
attr source packetDropReasonIsRetryLimitReached(packetDropped)
attr title "packet drop: retry limit reached, count"
scalar LoRaNetworkTest.loRaNodes[0].LoRaNic.mac packetDropRetryLimitReached:sum(packetBytes) 0
attr interpolationmode none
attr recordingmode sum(packetBytes)
attr source packetDropReasonIsRetryLimitReached(packetDropped)
attr title "packet drop: retry limit reached, sum(packetBytes)"
scalar LoRaNetworkTest.loRaNodes[0].LoRaNic.mac linkBroken:count 0
attr interpolationmode none
attr recordingmode count
attr source linkBroken
attr title "link break, count"
par LoRaNetworkTest.loRaNodes[0].LoRaNic.radio.antenna typename "\"inet.physicallayer.wireless.common.antenna.IsotropicAntenna\""
par LoRaNetworkTest.loRaNodes[0].LoRaNic.radio.antenna mobilityModule "\"^.^.^.mobility\""
par LoRaNetworkTest.loRaNodes[0].LoRaNic.radio.antenna numAntennas 1
par LoRaNetworkTest.loRaNodes[0].LoRaNic.radio.transmitter typename "\"flora.LoRaPhy.LoRaTransmitter\""
par LoRaNetworkTest.loRaNodes[0].LoRaNic.radio.transmitter preambleDuration 0.001s
attr unit s
par LoRaNetworkTest.loRaNodes[0].LoRaNic.radio.transmitter headerLength 0b
attr unit b
par LoRaNetworkTest.loRaNodes[0].LoRaNic.radio.transmitter bitrate 250000bps
attr unit bps
par LoRaNetworkTest.loRaNodes[0].LoRaNic.radio.transmitter power 0.025118W
attr unit W
par LoRaNetworkTest.loRaNodes[0].LoRaNic.radio.transmitter centerFrequency 8.68e+08Hz
attr unit Hz
par LoRaNetworkTest.loRaNodes[0].LoRaNic.radio.transmitter bandwidth 250000Hz
attr unit Hz
par LoRaNetworkTest.loRaNodes[0].LoRaNic.radio.transmitter modulation "\"LoRaModulation\""
scalar LoRaNetworkTest.loRaNodes[0].LoRaNic.radio.transmitter LoRaTransmissionCreated:count 1
attr recordingmode count
attr source LoRaTransmissionCreated
par LoRaNetworkTest.loRaNodes[0].LoRaNic.radio.receiver typename "\"flora.LoRaPhy.LoRaReceiver\""
par LoRaNetworkTest.loRaNodes[0].LoRaNic.radio.receiver snirThreshold -8dB
attr unit dB
par LoRaNetworkTest.loRaNodes[0].LoRaNic.radio.receiver snirThresholdMode "\"min\""
attr unit min,mean
par LoRaNetworkTest.loRaNodes[0].LoRaNic.radio.receiver energyDetection -110dBm
attr unit dBm
par LoRaNetworkTest.loRaNodes[0].LoRaNic.radio.receiver sensitivity -137dBm
attr unit dBm
par LoRaNetworkTest.loRaNodes[0].LoRaNic.radio.receiver centerFrequency 8.68e+08Hz
attr unit Hz
par LoRaNetworkTest.loRaNodes[0].LoRaNic.radio.receiver bandwidth 250000Hz
attr unit Hz
par LoRaNetworkTest.loRaNodes[0].LoRaNic.radio.receiver modulation "\"BPSK\""
par LoRaNetworkTest.loRaNodes[0].LoRaNic.radio.receiver alohaChannelModel false
scalar LoRaNetworkTest.loRaNodes[0].LoRaNic.radio.receiver numCollisions 0
scalar LoRaNetworkTest.loRaNodes[0].LoRaNic.radio.receiver rcvBelowSensitivity 0
scalar LoRaNetworkTest.loRaNodes[0].LoRaNic.radio.receiver LoRaReceptionCollision:count 0
attr recordingmode count
attr source LoRaReceptionCollision
par LoRaNetworkTest.loRaNodes[0].LoRaNic.radio.energyConsumer typename "\"flora.LoRaEnergyModules.LoRaEnergyConsumer\""
par LoRaNetworkTest.loRaNodes[0].LoRaNic.radio.energyConsumer energySourceModule "\"^.IdealEpEnergyStorage\""
par LoRaNetworkTest.loRaNodes[0].LoRaNic.radio.energyConsumer offPowerConsumption 0W
attr unit W
par LoRaNetworkTest.loRaNodes[0].LoRaNic.radio.energyConsumer sleepPowerConsumption 0.001W
attr unit W
par LoRaNetworkTest.loRaNodes[0].LoRaNic.radio.energyConsumer switchingPowerConsumption 0.001W
attr unit W
par LoRaNetworkTest.loRaNodes[0].LoRaNic.radio.energyConsumer receiverIdlePowerConsumption 0.002W
attr unit W
par LoRaNetworkTest.loRaNodes[0].LoRaNic.radio.energyConsumer receiverBusyPowerConsumption 0.005W
attr unit W
par LoRaNetworkTest.loRaNodes[0].LoRaNic.radio.energyConsumer receiverReceivingPowerConsumption 0.01W
attr unit W
par LoRaNetworkTest.loRaNodes[0].LoRaNic.radio.energyConsumer receiverReceivingPreamblePowerConsumption 0.01W
attr unit W
par LoRaNetworkTest.loRaNodes[0].LoRaNic.radio.energyConsumer receiverReceivingHeaderPowerConsumption 0.01W
attr unit W
par LoRaNetworkTest.loRaNodes[0].LoRaNic.radio.energyConsumer receiverReceivingDataPowerConsumption 0.01W
attr unit W
par LoRaNetworkTest.loRaNodes[0].LoRaNic.radio.energyConsumer transmitterIdlePowerConsumption 0.002W
attr unit W
par LoRaNetworkTest.loRaNodes[0].LoRaNic.radio.energyConsumer transmitterTransmittingPowerConsumption 0.1W
attr unit W
par LoRaNetworkTest.loRaNodes[0].LoRaNic.radio.energyConsumer transmitterTransmittingPreamblePowerConsumption 0.1W
attr unit W
par LoRaNetworkTest.loRaNodes[0].LoRaNic.radio.energyConsumer transmitterTransmittingHeaderPowerConsumption 0.1W
attr unit W
par LoRaNetworkTest.loRaNodes[0].LoRaNic.radio.energyConsumer transmitterTransmittingDataPowerConsumption 0.1W
attr unit W
par LoRaNetworkTest.loRaNodes[0].LoRaNic.radio.energyConsumer configFile "<root>...</root> at /Users/hiro/LoRaPos/simulation/flora_simulation//energyConsumptionParameters.xml:2"
scalar LoRaNetworkTest.loRaNodes[0].LoRaNic.radio.energyConsumer totalEnergyConsumed 0.2486009856
par LoRaNetworkTest.loRaNodes[0].LoRaNic.radio.IdealEpEnergyStorage typename "\"inet.power.storage.IdealEpEnergyStorage\""
scalar LoRaNetworkTest.loRaNodes[0].LoRaNic.radio.IdealEpEnergyStorage residualEnergyCapacity:last -0.2486009856
attr interpolationmode linear
attr recordingmode last
attr source residualEnergyCapacityChanged
attr title "Residual energy capacity, last"
par LoRaNetworkTest.loRaNodes[0].LoRaNic.radio typename "\"flora.LoRa.LoRaRadio\""
par LoRaNetworkTest.loRaNodes[0].LoRaNic.radio radioMediumModule "\"LoRaMedium\""
par LoRaNetworkTest.loRaNodes[0].LoRaNic.radio energySourceModule "\"^.IdealEpEnergyStorage\""
par LoRaNetworkTest.loRaNodes[0].LoRaNic.radio initialRadioMode "\"off\""
attr enum off,sleep,receiver,transmitter,transceiver
par LoRaNetworkTest.loRaNodes[0].LoRaNic.radio switchingTimes "\"ms 0 0 0 0 0 0 0 0 0 0 0 0 0 0 0 0 0 0 0 0 0 0 0 0 0\""
par LoRaNetworkTest.loRaNodes[0].LoRaNic.radio sendRawBytes false
par LoRaNetworkTest.loRaNodes[0].LoRaNic.radio separateTransmissionParts false
par LoRaNetworkTest.loRaNodes[0].LoRaNic.radio separateReceptionParts false
par LoRaNetworkTest.loRaNodes[0].LoRaNic.radio displayCommunicationRange false
par LoRaNetworkTest.loRaNodes[0].LoRaNic.radio displayInterferenceRange false
par LoRaNetworkTest.loRaNodes[0].LoRaNic.radio centerFrequency 8.68e+08Hz
attr unit Hz
par LoRaNetworkTest.loRaNodes[0].LoRaNic.radio bandwidth 250000Hz
attr unit Hz
par LoRaNetworkTest.loRaNodes[0].LoRaNic.radio iAmGateway false
scalar LoRaNetworkTest.loRaNodes[0].LoRaNic.radio radioMode:count 5
attr interpolationmode sample-hold
attr recordingmode count
attr source radioModeChanged
attr title "Radio mode, count"
scalar LoRaNetworkTest.loRaNodes[0].LoRaNic.radio receptionState:count 0
attr interpolationmode sample-hold
attr recordingmode count
attr source receptionStateChanged
attr title "Radio reception state, count"
scalar LoRaNetworkTest.loRaNodes[0].LoRaNic.radio transmissionState:count 4
attr interpolationmode sample-hold
attr recordingmode count
attr source transmissionStateChanged
attr title "Radio transmission state, count"
statistic LoRaNetworkTest.loRaNodes[0].LoRaNic.radio minSnir:histogram
field count 0
field mean nan
field stddev nan
field min nan
field max nan
field sum 0
field sqrsum 0
attr recordingmode histogram
attr source minimumSnir(packetSentToUpper)
attr title "Min SNIR"
bin	-inf	0
bin	0	0
bin	1	0
statistic LoRaNetworkTest.loRaNodes[0].LoRaNic.radio packetErrorRate:histogram
field count 0
field mean nan
field stddev nan
field min nan
field max nan
field sum 0
field sqrsum 0
attr recordingmode histogram
attr source packetErrorRate(packetSentToUpper)
attr title "Packet error rate"
bin	-inf	0
bin	0	0
bin	1	0
statistic LoRaNetworkTest.loRaNodes[0].LoRaNic.radio bitErrorRate:histogram
field count 0
field mean nan
field stddev nan
field min nan
field max nan
field sum 0
field sqrsum 0
attr recordingmode histogram
attr source bitErrorRate(packetSentToUpper)
attr title "Bit error rate"
bin	-inf	0
bin	0	0
bin	1	0
statistic LoRaNetworkTest.loRaNodes[0].LoRaNic.radio symbolErrorRate:histogram
field count 0
field mean nan
field stddev nan
field min nan
field max nan
field sum 0
field sqrsum 0
attr recordingmode histogram
attr source symbolErrorRate(packetSentToUpper)
attr title "Symbol error rate"
bin	-inf	0
bin	0	0
bin	1	0
par LoRaNetworkTest.loRaNodes[0].LoRaNic typename "\"flora.LoRa.LoRaNic\""
par LoRaNetworkTest.loRaNodes[0].LoRaNic displayStringTextFormat "\"%a (%i)\\n%m\""
par LoRaNetworkTest.loRaNodes[0].LoRaNic recordPcap false
par LoRaNetworkTest.loRaNodes[0].LoRaNic numPcapRecorders 0
par LoRaNetworkTest.loRaNodes[0].LoRaNic interfaceTableModule "\"LoRaNetworkTest.loRaNodes[0].interfaceTable\""
par LoRaNetworkTest.loRaNodes[0].LoRaNic energySourceModule "\"^.IdealEpEnergyStorage\""
par LoRaNetworkTest.loRaNodes[0].LoRaNic protocol "\"\""
scalar LoRaNetworkTest.loRaNodes[0].LoRaNic packetDropInterfaceDown:count 0
attr interpolationmode none
attr recordingmode count
attr source packetDropReasonIsInterfaceDown(packetDropped)
attr title "packet drops: interface down, count"
scalar LoRaNetworkTest.loRaNodes[0].LoRaNic packetDropInterfaceDown:sum(packetBytes) 0
attr interpolationmode none
attr recordingmode sum(packetBytes)
attr source packetDropReasonIsInterfaceDown(packetDropped)
attr title "packet drops: interface down, sum(packetBytes)"
scalar LoRaNetworkTest.loRaNodes[0].LoRaNic packetDropNoCarrier:count 0
attr interpolationmode none
attr recordingmode count
attr source packetDropReasonIsNoCarrier(packetDropped)
attr title "packet drops: no carrier, count"
scalar LoRaNetworkTest.loRaNodes[0].LoRaNic packetDropNoCarrier:sum(packetBytes) 0
attr interpolationmode none
attr recordingmode sum(packetBytes)
attr source packetDropReasonIsNoCarrier(packetDropped)
attr title "packet drops: no carrier, sum(packetBytes)"
par LoRaNetworkTest.loRaNodes[0].app[0] typename "\"flora.LoRaApp.SimpleLoRaApp\""
par LoRaNetworkTest.loRaNodes[0].app[0] numberOfPacketsToSend 0
par LoRaNetworkTest.loRaNodes[0].app[0] timeToFirstPacket exponential(1000s)
attr unit s
par LoRaNetworkTest.loRaNodes[0].app[0] timeToNextPacket exponential(1000s)
attr unit s
par LoRaNetworkTest.loRaNodes[0].app[0] initialLoRaTP 14dBm
attr unit dBm
par LoRaNetworkTest.loRaNodes[0].app[0] initialLoRaCF 8.68e+08Hz
attr unit Hz
par LoRaNetworkTest.loRaNodes[0].app[0] initialLoRaSF 12
par LoRaNetworkTest.loRaNodes[0].app[0] initialLoRaBW 125000Hz
attr unit Hz
par LoRaNetworkTest.loRaNodes[0].app[0] initialLoRaCR 4
par LoRaNetworkTest.loRaNodes[0].app[0] initialUseHeader true
par LoRaNetworkTest.loRaNodes[0].app[0] evaluateADRinNode true
par LoRaNetworkTest.loRaNodes[0].app[0] dataSize 10B
attr unit B
scalar LoRaNetworkTest.loRaNodes[0].app[0] positionX 300
scalar LoRaNetworkTest.loRaNodes[0].app[0] positionY 350
scalar LoRaNetworkTest.loRaNodes[0].app[0] finalTP 14
scalar LoRaNetworkTest.loRaNodes[0].app[0] finalSF 12
scalar LoRaNetworkTest.loRaNodes[0].app[0] sentPackets 1
scalar LoRaNetworkTest.loRaNodes[0].app[0] receivedADRCommands 0
scalar LoRaNetworkTest.loRaNodes[0].app[0] LoRa_AppPacketSent:count 1
attr recordingmode count
attr source LoRa_AppPacketSent
par LoRaNetworkTest.loRaNodes[0] typename "\"flora.LoraNode.LoRaNode\""
par LoRaNetworkTest.loRaNodes[0] numApps 1
par LoRaNetworkTest.loRaNodes[0] deploymentType "\"\""
par LoRaNetworkTest.loRaNodes[0] maxGatewayDistance 320
par LoRaNetworkTest.loRaNodes[0] gatewayX 320
par LoRaNetworkTest.loRaNodes[0] gatewayY 320
par LoRaNetworkTest.loRaGW[0].ethg$i[0].channel typename "\"ned.IdealChannel\""
par LoRaNetworkTest.loRaGW[0].eth[0].phys$o.channel typename "\"ned.IdealChannel\""
par LoRaNetworkTest.loRaGW[0].at typename "\"inet.common.MessageDispatcher\""
par LoRaNetworkTest.loRaGW[0].at displayStringTextFormat "\"processed %p pk (%l)\""
par LoRaNetworkTest.loRaGW[0].at forwardServiceRegistration true
par LoRaNetworkTest.loRaGW[0].at forwardProtocolRegistration true
par LoRaNetworkTest.loRaGW[0].tn typename "\"inet.common.MessageDispatcher\""
par LoRaNetworkTest.loRaGW[0].tn displayStringTextFormat "\"processed %p pk (%l)\""
par LoRaNetworkTest.loRaGW[0].tn forwardServiceRegistration true
par LoRaNetworkTest.loRaGW[0].tn forwardProtocolRegistration true
par LoRaNetworkTest.loRaGW[0].nl typename "\"inet.common.MessageDispatcher\""
par LoRaNetworkTest.loRaGW[0].nl displayStringTextFormat "\"processed %p pk (%l)\""
par LoRaNetworkTest.loRaGW[0].nl forwardServiceRegistration true
par LoRaNetworkTest.loRaGW[0].nl forwardProtocolRegistration true
par LoRaNetworkTest.loRaGW[0].cb typename "\"inet.common.MessageDispatcher\""
par LoRaNetworkTest.loRaGW[0].cb displayStringTextFormat "\"processed %p pk (%l)\""
par LoRaNetworkTest.loRaGW[0].cb forwardServiceRegistration true
par LoRaNetworkTest.loRaGW[0].cb forwardProtocolRegistration true
par LoRaNetworkTest.loRaGW[0].bl typename "\"inet.common.MessageDispatcher\""
par LoRaNetworkTest.loRaGW[0].bl displayStringTextFormat "\"processed %p pk (%l)\""
par LoRaNetworkTest.loRaGW[0].bl forwardServiceRegistration true
par LoRaNetworkTest.loRaGW[0].bl forwardProtocolRegistration true
par LoRaNetworkTest.loRaGW[0].li typename "\"inet.common.MessageDispatcher\""
par LoRaNetworkTest.loRaGW[0].li displayStringTextFormat "\"processed %p pk (%l)\""
par LoRaNetworkTest.loRaGW[0].li forwardServiceRegistration true
par LoRaNetworkTest.loRaGW[0].li forwardProtocolRegistration true
par LoRaNetworkTest.loRaGW[0].interfaceTable typename "\"inet.networklayer.common.InterfaceTable\""
par LoRaNetworkTest.loRaGW[0].interfaceTable displayAddresses false
par LoRaNetworkTest.loRaGW[0].mobility typename "\"inet.mobility.static.StationaryMobility\""
par LoRaNetworkTest.loRaGW[0].mobility subjectModule "\"^\""
par LoRaNetworkTest.loRaGW[0].mobility coordinateSystemModule "\"\""
par LoRaNetworkTest.loRaGW[0].mobility displayStringTextFormat "\"p: %p\\nv: %v\""
attr mutable ""
par LoRaNetworkTest.loRaGW[0].mobility updateDisplayString true
par LoRaNetworkTest.loRaGW[0].mobility constraintAreaMinX 0m
attr unit m
par LoRaNetworkTest.loRaGW[0].mobility constraintAreaMinY 0m
attr unit m
par LoRaNetworkTest.loRaGW[0].mobility constraintAreaMinZ 0m
attr unit m
par LoRaNetworkTest.loRaGW[0].mobility constraintAreaMaxX 1000m
attr unit m
par LoRaNetworkTest.loRaGW[0].mobility constraintAreaMaxY 1000m
attr unit m
par LoRaNetworkTest.loRaGW[0].mobility constraintAreaMaxZ 0m
attr unit m
par LoRaNetworkTest.loRaGW[0].mobility initialX 200m
attr unit m
par LoRaNetworkTest.loRaGW[0].mobility initialY 200m
attr unit m
par LoRaNetworkTest.loRaGW[0].mobility initialZ 0m
attr unit m
par LoRaNetworkTest.loRaGW[0].mobility initialLatitude "nan deg"
attr unit deg
par LoRaNetworkTest.loRaGW[0].mobility initialLongitude "nan deg"
attr unit deg
par LoRaNetworkTest.loRaGW[0].mobility initialAltitude 0m
attr unit m
par LoRaNetworkTest.loRaGW[0].mobility initialHeading 0deg
attr unit deg
par LoRaNetworkTest.loRaGW[0].mobility initialElevation 0deg
attr unit deg
par LoRaNetworkTest.loRaGW[0].mobility initialBank 0deg
attr unit deg
par LoRaNetworkTest.loRaGW[0].mobility initFromDisplayString false
par LoRaNetworkTest.loRaGW[0].mobility updateFromDisplayString true
par LoRaNetworkTest.loRaGW[0].LoRaGWNic.radioIn.channel typename "\"ned.IdealChannel\""
par LoRaNetworkTest.loRaGW[0].LoRaGWNic.mac.upperLayerOut.channel typename "\"ned.IdealChannel\""
par LoRaNetworkTest.loRaGW[0].LoRaGWNic.upperLayerIn.channel typename "\"ned.IdealChannel\""
par LoRaNetworkTest.loRaGW[0].LoRaGWNic.mac typename "\"flora.LoRa.LoRaGWMac\""
par LoRaNetworkTest.loRaGW[0].LoRaGWNic.mac interfaceTableModule "\"LoRaNetworkTest.loRaGW[0].interfaceTable\""
par LoRaNetworkTest.loRaGW[0].LoRaGWNic.mac radioModule "\"^.radio\""
par LoRaNetworkTest.loRaGW[0].LoRaGWNic.mac address "\"0A-AA-00-00-00-02\""
attr mutable ""
par LoRaNetworkTest.loRaGW[0].LoRaGWNic.mac queueModule "\"\""
par LoRaNetworkTest.loRaGW[0].LoRaGWNic.mac maxQueueSize -1
par LoRaNetworkTest.loRaGW[0].LoRaGWNic.mac prioritizeByUP false
par LoRaNetworkTest.loRaGW[0].LoRaGWNic.mac useAck true
par LoRaNetworkTest.loRaGW[0].LoRaGWNic.mac headerLength 8B
attr unit B
par LoRaNetworkTest.loRaGW[0].LoRaGWNic.mac ackLength 8B
attr unit B
par LoRaNetworkTest.loRaGW[0].LoRaGWNic.mac sifsTime 1e-05s
attr unit s
par LoRaNetworkTest.loRaGW[0].LoRaGWNic.mac slotTime 2e-05s
attr unit s
par LoRaNetworkTest.loRaGW[0].LoRaGWNic.mac difsTime 5e-05s
attr unit s
par LoRaNetworkTest.loRaGW[0].LoRaGWNic.mac mtu 1500
par LoRaNetworkTest.loRaGW[0].LoRaGWNic.mac cwMin 31
par LoRaNetworkTest.loRaGW[0].LoRaGWNic.mac cwMax 1023
par LoRaNetworkTest.loRaGW[0].LoRaGWNic.mac cwMulticast 31
par LoRaNetworkTest.loRaGW[0].LoRaGWNic.mac retryLimit 7
scalar LoRaNetworkTest.loRaGW[0].LoRaGWNic.mac GW_forwardedDown 0
scalar LoRaNetworkTest.loRaGW[0].LoRaGWNic.mac GW_droppedDC 0
par LoRaNetworkTest.loRaGW[0].LoRaGWNic.radio.antenna typename "\"inet.physicallayer.wireless.common.antenna.IsotropicAntenna\""
par LoRaNetworkTest.loRaGW[0].LoRaGWNic.radio.antenna mobilityModule "\"^.^.^.mobility\""
par LoRaNetworkTest.loRaGW[0].LoRaGWNic.radio.antenna numAntennas 1
par LoRaNetworkTest.loRaGW[0].LoRaGWNic.radio.transmitter typename "\"flora.LoRaPhy.LoRaTransmitter\""
par LoRaNetworkTest.loRaGW[0].LoRaGWNic.radio.transmitter preambleDuration 0.001s
attr unit s
par LoRaNetworkTest.loRaGW[0].LoRaGWNic.radio.transmitter headerLength 0b
attr unit b
par LoRaNetworkTest.loRaGW[0].LoRaGWNic.radio.transmitter bitrate 250000bps
attr unit bps
par LoRaNetworkTest.loRaGW[0].LoRaGWNic.radio.transmitter power 0.00224W
attr unit W
par LoRaNetworkTest.loRaGW[0].LoRaGWNic.radio.transmitter centerFrequency 2.45e+09Hz
attr unit Hz
par LoRaNetworkTest.loRaGW[0].LoRaGWNic.radio.transmitter bandwidth 250000Hz
attr unit Hz
par LoRaNetworkTest.loRaGW[0].LoRaGWNic.radio.transmitter modulation "\"LoRaModulation\""
scalar LoRaNetworkTest.loRaGW[0].LoRaGWNic.radio.transmitter LoRaTransmissionCreated:count 0
attr recordingmode count
attr source LoRaTransmissionCreated
par LoRaNetworkTest.loRaGW[0].LoRaGWNic.radio.receiver typename "\"flora.LoRaPhy.LoRaReceiver\""
par LoRaNetworkTest.loRaGW[0].LoRaGWNic.radio.receiver snirThreshold -8dB
attr unit dB
par LoRaNetworkTest.loRaGW[0].LoRaGWNic.radio.receiver snirThresholdMode "\"min\""
attr unit min,mean
par LoRaNetworkTest.loRaGW[0].LoRaGWNic.radio.receiver energyDetection -110dBm
attr unit dBm
par LoRaNetworkTest.loRaGW[0].LoRaGWNic.radio.receiver sensitivity -100dBm
attr unit dBm
par LoRaNetworkTest.loRaGW[0].LoRaGWNic.radio.receiver centerFrequency 2.45e+09Hz
attr unit Hz
par LoRaNetworkTest.loRaGW[0].LoRaGWNic.radio.receiver bandwidth 250000Hz
attr unit Hz
par LoRaNetworkTest.loRaGW[0].LoRaGWNic.radio.receiver modulation "\"BPSK\""
par LoRaNetworkTest.loRaGW[0].LoRaGWNic.radio.receiver alohaChannelModel false
scalar LoRaNetworkTest.loRaGW[0].LoRaGWNic.radio.receiver numCollisions 0
scalar LoRaNetworkTest.loRaGW[0].LoRaGWNic.radio.receiver rcvBelowSensitivity 0
scalar LoRaNetworkTest.loRaGW[0].LoRaGWNic.radio.receiver LoRaReceptionCollision:count 0
attr recordingmode count
attr source LoRaReceptionCollision
par LoRaNetworkTest.loRaGW[0].LoRaGWNic.radio typename "\"flora.LoRa.LoRaGWRadio\""
par LoRaNetworkTest.loRaGW[0].LoRaGWNic.radio radioMediumModule "\"LoRaMedium\""
par LoRaNetworkTest.loRaGW[0].LoRaGWNic.radio energySourceModule "\"\""
par LoRaNetworkTest.loRaGW[0].LoRaGWNic.radio initialRadioMode "\"off\""
attr enum off,sleep,receiver,transmitter,transceiver
par LoRaNetworkTest.loRaGW[0].LoRaGWNic.radio switchingTimes "\"ms 0 0 0 0 0 0 0 0 0 0 0 0 0 0 0 0 0 0 0 0 0 0 0 0 0\""
par LoRaNetworkTest.loRaGW[0].LoRaGWNic.radio sendRawBytes false
par LoRaNetworkTest.loRaGW[0].LoRaGWNic.radio separateTransmissionParts false
par LoRaNetworkTest.loRaGW[0].LoRaGWNic.radio separateReceptionParts false
par LoRaNetworkTest.loRaGW[0].LoRaGWNic.radio displayCommunicationRange false
par LoRaNetworkTest.loRaGW[0].LoRaGWNic.radio displayInterferenceRange false
par LoRaNetworkTest.loRaGW[0].LoRaGWNic.radio centerFrequency 2.45e+09Hz
attr unit Hz
par LoRaNetworkTest.loRaGW[0].LoRaGWNic.radio bandwidth 250000Hz
attr unit Hz
par LoRaNetworkTest.loRaGW[0].LoRaGWNic.radio iAmGateway true
scalar LoRaNetworkTest.loRaGW[0].LoRaGWNic.radio "DER - Data Extraction Rate" 1
scalar LoRaNetworkTest.loRaGW[0].LoRaGWNic.radio LoRaGWRadioReceptionFinishedCorrect:count 1
attr recordingmode count
attr source LoRaGWRadioReceptionFinishedCorrect
scalar LoRaNetworkTest.loRaGW[0].LoRaGWNic.radio LoRaGWRadioReceptionStarted:count 1
attr recordingmode count
attr source LoRaGWRadioReceptionStarted
scalar LoRaNetworkTest.loRaGW[0].LoRaGWNic.radio radioMode:count 3
attr interpolationmode sample-hold
attr recordingmode count
attr source radioModeChanged
attr title "Radio mode, count"
scalar LoRaNetworkTest.loRaGW[0].LoRaGWNic.radio receptionState:count 1
attr interpolationmode sample-hold
attr recordingmode count
attr source receptionStateChanged
attr title "Radio reception state, count"
scalar LoRaNetworkTest.loRaGW[0].LoRaGWNic.radio transmissionState:count 1
attr interpolationmode sample-hold
attr recordingmode count
attr source transmissionStateChanged
attr title "Radio transmission state, count"
statistic LoRaNetworkTest.loRaGW[0].LoRaGWNic.radio minSnir:histogram
field count 2
field mean 4.9494661175325
field stddev 0
field min 4.9494661175325
field max 4.9494661175325
field sum 9.898932235065
field sqrsum 48.994429697205
attr recordingmode histogram
attr source minimumSnir(packetSentToUpper)
attr title "Min SNIR"
bin	-inf	0
bin	4.44	0
bin	4.46	0
bin	4.48	0
bin	4.5	0
bin	4.52	0
bin	4.54	0
bin	4.56	0
bin	4.58	0
bin	4.6	0
bin	4.62	0
bin	4.64	0
bin	4.66	0
bin	4.68	0
bin	4.7	0
bin	4.72	0
bin	4.74	0
bin	4.76	0
bin	4.78	0
bin	4.8	0
bin	4.82	0
bin	4.84	0
bin	4.86	0
bin	4.88	0
bin	4.9	0
bin	4.92	0
bin	4.94	2
bin	4.96	0
bin	4.98	0
bin	5	0
bin	5.02	0
bin	5.04	0
bin	5.06	0
bin	5.08	0
bin	5.1	0
bin	5.12	0
bin	5.14	0
bin	5.16	0
bin	5.18	0
bin	5.2	0
bin	5.22	0
bin	5.24	0
bin	5.26	0
bin	5.28	0
bin	5.3	0
bin	5.32	0
bin	5.34	0
bin	5.36	0
bin	5.38	0
bin	5.4	0
bin	5.42	0
bin	5.44	0
bin	5.46	0
statistic LoRaNetworkTest.loRaGW[0].LoRaGWNic.radio packetErrorRate:histogram
field count 2
field mean 0
field stddev 0
field min 0
field max 0
field sum 0
field sqrsum 0
attr recordingmode histogram
attr source packetErrorRate(packetSentToUpper)
attr title "Packet error rate"
bin	-inf	0
bin	-0.5	0
bin	-0.48	0
bin	-0.46	0
bin	-0.44	0
bin	-0.42	0
bin	-0.4	0
bin	-0.38	0
bin	-0.36	0
bin	-0.34	0
bin	-0.32	0
bin	-0.3	0
bin	-0.28	0
bin	-0.26	0
bin	-0.24	0
bin	-0.22	0
bin	-0.2	0
bin	-0.18	0
bin	-0.16	0
bin	-0.14	0
bin	-0.12	0
bin	-0.1	0
bin	-0.08	0
bin	-0.06	0
bin	-0.04	0
bin	-0.02	0
bin	0	2
bin	0.02	0
bin	0.04	0
bin	0.06	0
bin	0.08	0
bin	0.1	0
bin	0.12	0
bin	0.14	0
bin	0.16	0
bin	0.18	0
bin	0.2	0
bin	0.22	0
bin	0.24	0
bin	0.26	0
bin	0.28	0
bin	0.3	0
bin	0.32	0
bin	0.34	0
bin	0.36	0
bin	0.38	0
bin	0.4	0
bin	0.42	0
bin	0.44	0
bin	0.46	0
bin	0.48	0
bin	0.5	0
statistic LoRaNetworkTest.loRaGW[0].LoRaGWNic.radio bitErrorRate:histogram
field count 2
field mean 0
field stddev 0
field min 0
field max 0
field sum 0
field sqrsum 0
attr recordingmode histogram
attr source bitErrorRate(packetSentToUpper)
attr title "Bit error rate"
bin	-inf	0
bin	-0.5	0
bin	-0.48	0
bin	-0.46	0
bin	-0.44	0
bin	-0.42	0
bin	-0.4	0
bin	-0.38	0
bin	-0.36	0
bin	-0.34	0
bin	-0.32	0
bin	-0.3	0
bin	-0.28	0
bin	-0.26	0
bin	-0.24	0
bin	-0.22	0
bin	-0.2	0
bin	-0.18	0
bin	-0.16	0
bin	-0.14	0
bin	-0.12	0
bin	-0.1	0
bin	-0.08	0
bin	-0.06	0
bin	-0.04	0
bin	-0.02	0
bin	0	2
bin	0.02	0
bin	0.04	0
bin	0.06	0
bin	0.08	0
bin	0.1	0
bin	0.12	0
bin	0.14	0
bin	0.16	0
bin	0.18	0
bin	0.2	0
bin	0.22	0
bin	0.24	0
bin	0.26	0
bin	0.28	0
bin	0.3	0
bin	0.32	0
bin	0.34	0
bin	0.36	0
bin	0.38	0
bin	0.4	0
bin	0.42	0
bin	0.44	0
bin	0.46	0
bin	0.48	0
bin	0.5	0
statistic LoRaNetworkTest.loRaGW[0].LoRaGWNic.radio symbolErrorRate:histogram
field count 2
field mean 0
field stddev 0
field min 0
field max 0
field sum 0
field sqrsum 0
attr recordingmode histogram
attr source symbolErrorRate(packetSentToUpper)
attr title "Symbol error rate"
bin	-inf	0
bin	-0.5	0
bin	-0.48	0
bin	-0.46	0
bin	-0.44	0
bin	-0.42	0
bin	-0.4	0
bin	-0.38	0
bin	-0.36	0
bin	-0.34	0
bin	-0.32	0
bin	-0.3	0
bin	-0.28	0
bin	-0.26	0
bin	-0.24	0
bin	-0.22	0
bin	-0.2	0
bin	-0.18	0
bin	-0.16	0
bin	-0.14	0
bin	-0.12	0
bin	-0.1	0
bin	-0.08	0
bin	-0.06	0
bin	-0.04	0
bin	-0.02	0
bin	0	2
bin	0.02	0
bin	0.04	0
bin	0.06	0
bin	0.08	0
bin	0.1	0
bin	0.12	0
bin	0.14	0
bin	0.16	0
bin	0.18	0
bin	0.2	0
bin	0.22	0
bin	0.24	0
bin	0.26	0
bin	0.28	0
bin	0.3	0
bin	0.32	0
bin	0.34	0
bin	0.36	0
bin	0.38	0
bin	0.4	0
bin	0.42	0
bin	0.44	0
bin	0.46	0
bin	0.48	0
bin	0.5	0
par LoRaNetworkTest.loRaGW[0].LoRaGWNic typename "\"flora.LoRa.LoRaGWNic\""
par LoRaNetworkTest.loRaGW[0].LoRaGWNic displayStringTextFormat "\"%a (%i)\\n%m\""
par LoRaNetworkTest.loRaGW[0].LoRaGWNic recordPcap false
par LoRaNetworkTest.loRaGW[0].LoRaGWNic numPcapRecorders 0
par LoRaNetworkTest.loRaGW[0].LoRaGWNic interfaceTableModule "\"LoRaNetworkTest.loRaGW[0].interfaceTable\""
par LoRaNetworkTest.loRaGW[0].LoRaGWNic energySourceModule "\"\""
par LoRaNetworkTest.loRaGW[0].LoRaGWNic protocol "\"\""
scalar LoRaNetworkTest.loRaGW[0].LoRaGWNic packetDropInterfaceDown:count 0
attr interpolationmode none
attr recordingmode count
attr source packetDropReasonIsInterfaceDown(packetDropped)
attr title "packet drops: interface down, count"
scalar LoRaNetworkTest.loRaGW[0].LoRaGWNic packetDropInterfaceDown:sum(packetBytes) 0
attr interpolationmode none
attr recordingmode sum(packetBytes)
attr source packetDropReasonIsInterfaceDown(packetDropped)
attr title "packet drops: interface down, sum(packetBytes)"
scalar LoRaNetworkTest.loRaGW[0].LoRaGWNic packetDropNoCarrier:count 0
attr interpolationmode none
attr recordingmode count
attr source packetDropReasonIsNoCarrier(packetDropped)
attr title "packet drops: no carrier, count"
scalar LoRaNetworkTest.loRaGW[0].LoRaGWNic packetDropNoCarrier:sum(packetBytes) 0
attr interpolationmode none
attr recordingmode sum(packetBytes)
attr source packetDropReasonIsNoCarrier(packetDropped)
attr title "packet drops: no carrier, sum(packetBytes)"
par LoRaNetworkTest.loRaGW[0].packetForwarder typename "\"flora.LoRa.PacketForwarder\""
par LoRaNetworkTest.loRaGW[0].packetForwarder localPort 2000
par LoRaNetworkTest.loRaGW[0].packetForwarder destAddresses "\"networkServer\""
par LoRaNetworkTest.loRaGW[0].packetForwarder localAddress "\"\""
par LoRaNetworkTest.loRaGW[0].packetForwarder destPort 1000
scalar LoRaNetworkTest.loRaGW[0].packetForwarder LoRa_GW_DER 1
scalar LoRaNetworkTest.loRaGW[0].packetForwarder LoRa_GWPacketReceived:count 1
attr recordingmode count
attr source LoRa_GWPacketReceived
par LoRaNetworkTest.loRaGW[0].eth[0].mac.phys$o.channel typename "\"ned.IdealChannel\""
par LoRaNetworkTest.loRaGW[0].eth[0].phys$i.channel typename "\"ned.IdealChannel\""
par LoRaNetworkTest.loRaGW[0].eth[0].upperLayerIn.channel typename "\"ned.IdealChannel\""
par LoRaNetworkTest.loRaGW[0].eth[0].mac.upperLayerOut.channel typename "\"ned.IdealChannel\""
par LoRaNetworkTest.loRaGW[0].eth[0].queue typename "\"inet.linklayer.ethernet.common.EthernetQueue\""
par LoRaNetworkTest.loRaGW[0].eth[0].queue displayStringTextFormat "\"contains %p pk (%l) pushed %u\\npulled %o removed %r dropped %d\""
par LoRaNetworkTest.loRaGW[0].eth[0].queue packetCapacity 1000
par LoRaNetworkTest.loRaGW[0].eth[0].queue dataCapacity -1b
attr unit b
par LoRaNetworkTest.loRaGW[0].eth[0].queue dropperClass "\"inet::queueing::PacketAtCollectionEndDropper\""
par LoRaNetworkTest.loRaGW[0].eth[0].queue comparatorClass "\"inet::EthernetFrameTypeComparator\""
par LoRaNetworkTest.loRaGW[0].eth[0].queue bufferModule "\"\""
scalar LoRaNetworkTest.loRaGW[0].eth[0].queue queueLength:last 0
attr autoWarmupFilter false
attr interpolationmode sample-hold
attr recordingmode last
attr source "warmup(atomic(constant0(packetPushEnded) + count(packetPushStarted) - count(packetPulled) - count(packetRemoved) - count(packetDropped)))"
attr title "queue length, last"
attr unit pk
scalar LoRaNetworkTest.loRaGW[0].eth[0].queue queueLength:max 0
attr autoWarmupFilter false
attr interpolationmode sample-hold
attr recordingmode max
attr source "warmup(atomic(constant0(packetPushEnded) + count(packetPushStarted) - count(packetPulled) - count(packetRemoved) - count(packetDropped)))"
attr title "queue length, max"
attr unit pk
scalar LoRaNetworkTest.loRaGW[0].eth[0].queue queueLength:timeavg 0
attr autoWarmupFilter false
attr interpolationmode sample-hold
attr recordingmode timeavg
attr source "warmup(atomic(constant0(packetPushEnded) + count(packetPushStarted) - count(packetPulled) - count(packetRemoved) - count(packetDropped)))"
attr title "queue length, timeavg"
attr unit pk
scalar LoRaNetworkTest.loRaGW[0].eth[0].queue queueBitLength:last 0
attr autoWarmupFilter false
attr interpolationmode sample-hold
attr recordingmode last
attr source "warmup(atomic(constant0(packetPushEnded) + sum(packetLength(packetPushStarted)) - sum(packetLength(packetPulled)) - sum(packetLength(packetRemoved)) - sum(packetLength(packetDropped))))"
attr title "queue bit length, last"
attr unit b
scalar LoRaNetworkTest.loRaGW[0].eth[0].queue queueBitLength:max 0
attr autoWarmupFilter false
attr interpolationmode sample-hold
attr recordingmode max
attr source "warmup(atomic(constant0(packetPushEnded) + sum(packetLength(packetPushStarted)) - sum(packetLength(packetPulled)) - sum(packetLength(packetRemoved)) - sum(packetLength(packetDropped))))"
attr title "queue bit length, max"
attr unit b
scalar LoRaNetworkTest.loRaGW[0].eth[0].queue queueBitLength:timeavg 0
attr autoWarmupFilter false
attr interpolationmode sample-hold
attr recordingmode timeavg
attr source "warmup(atomic(constant0(packetPushEnded) + sum(packetLength(packetPushStarted)) - sum(packetLength(packetPulled)) - sum(packetLength(packetRemoved)) - sum(packetLength(packetDropped))))"
attr title "queue bit length, timeavg"
attr unit b
statistic LoRaNetworkTest.loRaGW[0].eth[0].queue queueingTime:histogram
field count 2
field mean 0
field stddev 0
field min 0
field max 0
field sum 0
field sqrsum 0
attr interpolationmode none
attr recordingmode histogram
attr source queueingTime(packetPulled)
attr title "queueing times"
attr unit s
bin	-inf	0
bin	-0.5	0
bin	-0.48	0
bin	-0.46	0
bin	-0.44	0
bin	-0.42	0
bin	-0.4	0
bin	-0.38	0
bin	-0.36	0
bin	-0.34	0
bin	-0.32	0
bin	-0.3	0
bin	-0.28	0
bin	-0.26	0
bin	-0.24	0
bin	-0.22	0
bin	-0.2	0
bin	-0.18	0
bin	-0.16	0
bin	-0.14	0
bin	-0.12	0
bin	-0.1	0
bin	-0.08	0
bin	-0.06	0
bin	-0.04	0
bin	-0.02	0
bin	0	2
bin	0.02	0
bin	0.04	0
bin	0.06	0
bin	0.08	0
bin	0.1	0
bin	0.12	0
bin	0.14	0
bin	0.16	0
bin	0.18	0
bin	0.2	0
bin	0.22	0
bin	0.24	0
bin	0.26	0
bin	0.28	0
bin	0.3	0
bin	0.32	0
bin	0.34	0
bin	0.36	0
bin	0.38	0
bin	0.4	0
bin	0.42	0
bin	0.44	0
bin	0.46	0
bin	0.48	0
bin	0.5	0
scalar LoRaNetworkTest.loRaGW[0].eth[0].queue outgoingPackets:count 2
attr recordingmode count
attr source packetPulled
attr title "outgoing packets, count"
attr unit pk
scalar LoRaNetworkTest.loRaGW[0].eth[0].queue outgoingPacketLengths:sum 952
attr interpolationmode none
attr recordingmode sum
attr source packetLength(packetPulled)
attr title "outgoing packet lengths, sum"
attr unit b
statistic LoRaNetworkTest.loRaGW[0].eth[0].queue outgoingPacketLengths:histogram
field count 2
field mean 476
field stddev 152.73506473629
field min 368
field max 584
field sum 952
field sqrsum 476480
attr interpolationmode none
attr recordingmode histogram
attr source packetLength(packetPulled)
attr title "outgoing packet lengths"
attr unit b
bin	-inf	0
bin	310	0
bin	315	0
bin	320	0
bin	325	0
bin	330	0
bin	335	0
bin	340	0
bin	345	0
bin	350	0
bin	355	0
bin	360	0
bin	365	1
bin	370	0
bin	375	0
bin	380	0
bin	385	0
bin	390	0
bin	395	0
bin	400	0
bin	405	0
bin	410	0
bin	415	0
bin	420	0
bin	425	0
bin	430	0
bin	435	0
bin	440	0
bin	445	0
bin	450	0
bin	455	0
bin	460	0
bin	465	0
bin	470	0
bin	475	0
bin	480	0
bin	485	0
bin	490	0
bin	495	0
bin	500	0
bin	505	0
bin	510	0
bin	515	0
bin	520	0
bin	525	0
bin	530	0
bin	535	0
bin	540	0
bin	545	0
bin	550	0
bin	555	0
bin	560	0
bin	565	0
bin	570	0
bin	575	0
bin	580	1
bin	585	0
bin	590	0
bin	595	0
bin	600	0
bin	605	0
bin	610	0
bin	615	0
bin	620	0
bin	625	0
bin	630	0
bin	635	0
bin	640	0
statistic LoRaNetworkTest.loRaGW[0].eth[0].queue flowQueueingTime:histogram
field count 0
field mean nan
field stddev nan
field min nan
field max nan
field sum 0
field sqrsum 0
attr interpolationmode none
attr recordingmode histogram
attr source queueingTime(demuxFlow(packetPulled))
attr title "flow queueing times"
attr unit s
bin	-inf	0
bin	0	0
bin	1	0
scalar LoRaNetworkTest.loRaGW[0].eth[0].queue incomingPackets:count 2
attr recordingmode count
attr source packetPushStarted
attr title "incoming packets, count"
attr unit pk
scalar LoRaNetworkTest.loRaGW[0].eth[0].queue incomingPacketLengths:sum 952
attr interpolationmode none
attr recordingmode sum
attr source packetLength(packetPushStarted)
attr title "incoming packet lengths, sum"
attr unit b
statistic LoRaNetworkTest.loRaGW[0].eth[0].queue incomingPacketLengths:histogram
field count 2
field mean 476
field stddev 152.73506473629
field min 368
field max 584
field sum 952
field sqrsum 476480
attr interpolationmode none
attr recordingmode histogram
attr source packetLength(packetPushStarted)
attr title "incoming packet lengths"
attr unit b
bin	-inf	0
bin	310	0
bin	315	0
bin	320	0
bin	325	0
bin	330	0
bin	335	0
bin	340	0
bin	345	0
bin	350	0
bin	355	0
bin	360	0
bin	365	1
bin	370	0
bin	375	0
bin	380	0
bin	385	0
bin	390	0
bin	395	0
bin	400	0
bin	405	0
bin	410	0
bin	415	0
bin	420	0
bin	425	0
bin	430	0
bin	435	0
bin	440	0
bin	445	0
bin	450	0
bin	455	0
bin	460	0
bin	465	0
bin	470	0
bin	475	0
bin	480	0
bin	485	0
bin	490	0
bin	495	0
bin	500	0
bin	505	0
bin	510	0
bin	515	0
bin	520	0
bin	525	0
bin	530	0
bin	535	0
bin	540	0
bin	545	0
bin	550	0
bin	555	0
bin	560	0
bin	565	0
bin	570	0
bin	575	0
bin	580	1
bin	585	0
bin	590	0
bin	595	0
bin	600	0
bin	605	0
bin	610	0
bin	615	0
bin	620	0
bin	625	0
bin	630	0
bin	635	0
bin	640	0
scalar LoRaNetworkTest.loRaGW[0].eth[0].queue droppedPacketsQueueOverflow:count 0
attr interpolationmode none
attr recordingmode count
attr source packetDropReasonIsQueueOverflow(packetDropped)
attr title "dropped packets: queue overflow, count"
attr unit pk
scalar LoRaNetworkTest.loRaGW[0].eth[0].queue droppedPacketLengthsQueueOverflow:sum 0
attr interpolationmode none
attr recordingmode sum
attr source packetLength(packetDropReasonIsQueueOverflow(packetDropped))
attr title "dropped packet lengths: queue overflow, sum"
attr unit b
par LoRaNetworkTest.loRaGW[0].eth[0].mac typename "\"inet.linklayer.ethernet.basic.EthernetMac\""
par LoRaNetworkTest.loRaGW[0].eth[0].mac interfaceTableModule "\"LoRaNetworkTest.loRaGW[0].interfaceTable\""
par LoRaNetworkTest.loRaGW[0].eth[0].mac displayStringTextFormat "\"rate: %b\\nsent: %s, rcvd: %r\\nqueue: %q, drop: %d\""
par LoRaNetworkTest.loRaGW[0].eth[0].mac sendRawBytes false
par LoRaNetworkTest.loRaGW[0].eth[0].mac promiscuous false
par LoRaNetworkTest.loRaGW[0].eth[0].mac duplexMode true
par LoRaNetworkTest.loRaGW[0].eth[0].mac mtu 1500B
attr unit B
par LoRaNetworkTest.loRaGW[0].eth[0].mac fcsMode "\"declared\""
attr enum declared,computed
par LoRaNetworkTest.loRaGW[0].eth[0].mac stopOperationExtraTime -1s
attr unit s
par LoRaNetworkTest.loRaGW[0].eth[0].mac stopOperationTimeout 2s
attr unit s
scalar LoRaNetworkTest.loRaGW[0].eth[0].mac "simulated time" 1257.6528921267
scalar LoRaNetworkTest.loRaGW[0].eth[0].mac full-duplex 1
scalar LoRaNetworkTest.loRaGW[0].eth[0].mac "frames/sec sent" 0.0015902639055025
scalar LoRaNetworkTest.loRaGW[0].eth[0].mac "frames/sec rcvd" 0.00079513195275126
scalar LoRaNetworkTest.loRaGW[0].eth[0].mac "bits/sec sent" 0.87146462021538
scalar LoRaNetworkTest.loRaGW[0].eth[0].mac "bits/sec rcvd" 0.40710755980865
scalar LoRaNetworkTest.loRaGW[0].eth[0].mac "rx channel idle (%)" 99.9999999542
scalar LoRaNetworkTest.loRaGW[0].eth[0].mac "rx channel utilization (%)" 4.5799600478473e-08
scalar LoRaNetworkTest.loRaGW[0].eth[0].mac rxPausePkUnits:count 0
attr interpolationmode none
attr recordingmode count
attr title "pause units received, count"
scalar LoRaNetworkTest.loRaGW[0].eth[0].mac rxPausePkUnits:sum 0
attr interpolationmode none
attr recordingmode sum
attr title "pause units received, sum"
scalar LoRaNetworkTest.loRaGW[0].eth[0].mac txPausePkUnits:count 0
attr interpolationmode none
attr recordingmode count
attr title "pause units sent, count"
scalar LoRaNetworkTest.loRaGW[0].eth[0].mac txPausePkUnits:sum 0
attr interpolationmode none
attr recordingmode sum
attr title "pause units sent, sum"
scalar LoRaNetworkTest.loRaGW[0].eth[0].mac rxPkOk:count 1
attr interpolationmode none
attr recordingmode count
attr source rxPkOk
attr title "packets received OK, count"
scalar LoRaNetworkTest.loRaGW[0].eth[0].mac rxPkOk:sum(packetBytes) 64
attr interpolationmode none
attr recordingmode sum(packetBytes)
attr source rxPkOk
attr title "packets received OK, sum(packetBytes)"
scalar LoRaNetworkTest.loRaGW[0].eth[0].mac txPk:count 2
attr interpolationmode none
attr recordingmode count
attr source packetSentToLower
attr title "packets transmitted, count"
scalar LoRaNetworkTest.loRaGW[0].eth[0].mac txPk:sum(packetBytes) 137
attr interpolationmode none
attr recordingmode sum(packetBytes)
attr source packetSentToLower
attr title "packets transmitted, sum(packetBytes)"
scalar LoRaNetworkTest.loRaGW[0].eth[0].mac packetReceivedFromUpper:count 2
attr interpolationmode none
attr recordingmode count
attr source packetReceivedFromUpper
attr title "packet bytes from higher layer, count"
scalar LoRaNetworkTest.loRaGW[0].eth[0].mac packetReceivedFromUpper:sum(packetBytes) 119
attr interpolationmode none
attr recordingmode sum(packetBytes)
attr source packetReceivedFromUpper
attr title "packet bytes from higher layer, sum(packetBytes)"
scalar LoRaNetworkTest.loRaGW[0].eth[0].mac passedUpPk:count 1
attr interpolationmode none
attr recordingmode count
attr source packetSentToUpper
attr title "packets passed to higher layer, count"
scalar LoRaNetworkTest.loRaGW[0].eth[0].mac passedUpPk:sum(packetBytes) 64
attr interpolationmode none
attr recordingmode sum(packetBytes)
attr source packetSentToUpper
attr title "packets passed to higher layer, sum(packetBytes)"
scalar LoRaNetworkTest.loRaGW[0].eth[0].mac packetDropIncorrectlyReceived:count 0
attr interpolationmode none
attr recordingmode count
attr source packetDropReasonIsIncorrectlyReceived(packetDropped)
attr title "packet drop: incorrectly received, count"
scalar LoRaNetworkTest.loRaGW[0].eth[0].mac packetDropIncorrectlyReceived:sum(packetBytes) 0
attr interpolationmode none
attr recordingmode sum(packetBytes)
attr source packetDropReasonIsIncorrectlyReceived(packetDropped)
attr title "packet drop: incorrectly received, sum(packetBytes)"
scalar LoRaNetworkTest.loRaGW[0].eth[0].mac packetDropInterfaceDown:count 0
attr interpolationmode none
attr recordingmode count
attr source packetDropReasonIsInterfaceDown(packetDropped)
attr title "packet drop: interface down, count"
scalar LoRaNetworkTest.loRaGW[0].eth[0].mac packetDropInterfaceDown:sum(packetBytes) 0
attr interpolationmode none
attr recordingmode sum(packetBytes)
attr source packetDropReasonIsInterfaceDown(packetDropped)
attr title "packet drop: interface down, sum(packetBytes)"
scalar LoRaNetworkTest.loRaGW[0].eth[0].mac packetDropNotAddressedToUs:count 0
attr interpolationmode none
attr recordingmode count
attr source packetDropReasonIsNotAddressedToUs(packetDropped)
attr title "packet drop: not addressed to us, count"
scalar LoRaNetworkTest.loRaGW[0].eth[0].mac packetDropNotAddressedToUs:sum(packetBytes) 0
attr interpolationmode none
attr recordingmode sum(packetBytes)
attr source packetDropReasonIsNotAddressedToUs(packetDropped)
attr title "packet drop: not addressed to us, sum(packetBytes)"
par LoRaNetworkTest.loRaGW[0].eth[0] typename "\"inet.linklayer.ethernet.EthernetInterface\""
par LoRaNetworkTest.loRaGW[0].eth[0] displayStringTextFormat "\"%a (%i)\\n%m\""
par LoRaNetworkTest.loRaGW[0].eth[0] recordPcap false
par LoRaNetworkTest.loRaGW[0].eth[0] numPcapRecorders 0
par LoRaNetworkTest.loRaGW[0].eth[0] interfaceTableModule "\"LoRaNetworkTest.loRaGW[0].interfaceTable\""
par LoRaNetworkTest.loRaGW[0].eth[0] protocol "\"ethernetmac\""
par LoRaNetworkTest.loRaGW[0].eth[0] address "\"0A-AA-00-00-00-03\""
attr mutable ""
par LoRaNetworkTest.loRaGW[0].eth[0] duplexMode true
par LoRaNetworkTest.loRaGW[0].eth[0] csmacdSupport false
par LoRaNetworkTest.loRaGW[0].eth[0] bitrate 0bps
attr unit bps
par LoRaNetworkTest.loRaGW[0].eth[0] fcsMode "\"declared\""
attr enum declared,computed
scalar LoRaNetworkTest.loRaGW[0].eth[0] packetDropInterfaceDown:count 0
attr interpolationmode none
attr recordingmode count
attr source packetDropReasonIsInterfaceDown(packetDropped)
attr title "packet drops: interface down, count"
scalar LoRaNetworkTest.loRaGW[0].eth[0] packetDropInterfaceDown:sum(packetBytes) 0
attr interpolationmode none
attr recordingmode sum(packetBytes)
attr source packetDropReasonIsInterfaceDown(packetDropped)
attr title "packet drops: interface down, sum(packetBytes)"
scalar LoRaNetworkTest.loRaGW[0].eth[0] packetDropNoCarrier:count 0
attr interpolationmode none
attr recordingmode count
attr source packetDropReasonIsNoCarrier(packetDropped)
attr title "packet drops: no carrier, count"
scalar LoRaNetworkTest.loRaGW[0].eth[0] packetDropNoCarrier:sum(packetBytes) 0
attr interpolationmode none
attr recordingmode sum(packetBytes)
attr source packetDropReasonIsNoCarrier(packetDropped)
attr title "packet drops: no carrier, sum(packetBytes)"
par LoRaNetworkTest.loRaGW[0].udp typename "\"inet.transportlayer.udp.Udp\""
par LoRaNetworkTest.loRaGW[0].udp interfaceTableModule "\"LoRaNetworkTest.loRaGW[0].interfaceTable\""
par LoRaNetworkTest.loRaGW[0].udp icmpModule "\"^.ipv4.icmp\""
par LoRaNetworkTest.loRaGW[0].udp icmpv6Module "\"^.ipv6.icmpv6\""
par LoRaNetworkTest.loRaGW[0].udp crcMode "\"declared\""
attr enum disabled,declared,computed
par LoRaNetworkTest.loRaGW[0].udp defaultMulticastLoop true
scalar LoRaNetworkTest.loRaGW[0].udp packetReceived:count 0
attr interpolationmode none
attr recordingmode count
attr source packetReceived
attr title "packets received, count"
scalar LoRaNetworkTest.loRaGW[0].udp packetReceived:sum(packetBytes) 0
attr interpolationmode none
attr recordingmode sum(packetBytes)
attr source packetReceived
attr title "packets received, sum(packetBytes)"
scalar LoRaNetworkTest.loRaGW[0].udp packetSent:count 1
attr interpolationmode none
attr recordingmode count
attr source packetSent
attr title "packets sent, count"
scalar LoRaNetworkTest.loRaGW[0].udp packetSent:sum(packetBytes) 35
attr interpolationmode none
attr recordingmode sum(packetBytes)
attr source packetSent
attr title "packets sent, sum(packetBytes)"
scalar LoRaNetworkTest.loRaGW[0].udp passedUpPk:count 0
attr interpolationmode none
attr recordingmode count
attr source packetSentToUpper
attr title "packets passed up, count"
scalar LoRaNetworkTest.loRaGW[0].udp droppedPkWrongPort:count 0
attr interpolationmode none
attr recordingmode count
attr source packetDropReasonIsNoPortFound(packetDropped)
attr title "packets dropped (wrong port), count"
scalar LoRaNetworkTest.loRaGW[0].udp droppedPkBadChecksum:count 0
attr interpolationmode none
attr recordingmode count
attr source packetDropReasonIsIncorrectlyReceived(packetDropped)
attr title "packets dropped (checksum error), count"
par LoRaNetworkTest.loRaGW[0].ipv4.transportIn.channel typename "\"ned.IdealChannel\""
par LoRaNetworkTest.loRaGW[0].ipv4.up.out[0].channel typename "\"ned.IdealChannel\""
par LoRaNetworkTest.loRaGW[0].ipv4.lp.out[2].channel typename "\"ned.IdealChannel\""
par LoRaNetworkTest.loRaGW[0].ipv4.ifIn.channel typename "\"ned.IdealChannel\""
par LoRaNetworkTest.loRaGW[0].ipv4.configurator typename "\"inet.networklayer.configurator.ipv4.Ipv4NodeConfigurator\""
par LoRaNetworkTest.loRaGW[0].ipv4.configurator interfaceTableModule "\"LoRaNetworkTest.loRaGW[0].interfaceTable\""
par LoRaNetworkTest.loRaGW[0].ipv4.configurator routingTableModule "\"LoRaNetworkTest.loRaGW[0].ipv4.routingTable\""
par LoRaNetworkTest.loRaGW[0].ipv4.configurator networkConfiguratorModule "\"configurator\""
par LoRaNetworkTest.loRaGW[0].ipv4.configurator configureRoutingTable true
par LoRaNetworkTest.loRaGW[0].ipv4.routingTable typename "\"inet.networklayer.ipv4.Ipv4RoutingTable\""
par LoRaNetworkTest.loRaGW[0].ipv4.routingTable interfaceTableModule "\"LoRaNetworkTest.loRaGW[0].interfaceTable\""
par LoRaNetworkTest.loRaGW[0].ipv4.routingTable routerId "\"auto\""
par LoRaNetworkTest.loRaGW[0].ipv4.routingTable netmaskRoutes "\"*\""
par LoRaNetworkTest.loRaGW[0].ipv4.routingTable forwarding false
par LoRaNetworkTest.loRaGW[0].ipv4.routingTable multicastForwarding false
par LoRaNetworkTest.loRaGW[0].ipv4.routingTable useAdminDist false
par LoRaNetworkTest.loRaGW[0].ipv4.routingTable routingFile "\"\""
par LoRaNetworkTest.loRaGW[0].ipv4.natTable typename "\"inet.networklayer.ipv4.Ipv4NatTable\""
par LoRaNetworkTest.loRaGW[0].ipv4.natTable networkProtocolModule "\"^.ip\""
par LoRaNetworkTest.loRaGW[0].ipv4.natTable config "<config/> at content:1"
par LoRaNetworkTest.loRaGW[0].ipv4.up typename "\"inet.common.MessageDispatcher\""
par LoRaNetworkTest.loRaGW[0].ipv4.up displayStringTextFormat "\"processed %p pk (%l)\""
par LoRaNetworkTest.loRaGW[0].ipv4.up forwardServiceRegistration true
par LoRaNetworkTest.loRaGW[0].ipv4.up forwardProtocolRegistration true
par LoRaNetworkTest.loRaGW[0].ipv4.igmp typename "\"inet.networklayer.ipv4.Igmpv2\""
par LoRaNetworkTest.loRaGW[0].ipv4.igmp interfaceTableModule "\"LoRaNetworkTest.loRaGW[0].interfaceTable\""
par LoRaNetworkTest.loRaGW[0].ipv4.igmp routingTableModule "\"LoRaNetworkTest.loRaGW[0].ipv4.routingTable\""
par LoRaNetworkTest.loRaGW[0].ipv4.igmp crcMode "\"declared\""
attr enum declared,computed
par LoRaNetworkTest.loRaGW[0].ipv4.igmp enabled true
par LoRaNetworkTest.loRaGW[0].ipv4.igmp robustnessVariable 2
par LoRaNetworkTest.loRaGW[0].ipv4.igmp queryInterval 125s
attr unit s
par LoRaNetworkTest.loRaGW[0].ipv4.igmp queryResponseInterval 10s
attr unit s
par LoRaNetworkTest.loRaGW[0].ipv4.igmp groupMembershipInterval 260s
attr unit s
par LoRaNetworkTest.loRaGW[0].ipv4.igmp otherQuerierPresentInterval 255s
attr unit s
par LoRaNetworkTest.loRaGW[0].ipv4.igmp startupQueryInterval 31.25s
attr unit s
par LoRaNetworkTest.loRaGW[0].ipv4.igmp startupQueryCount 2
par LoRaNetworkTest.loRaGW[0].ipv4.igmp lastMemberQueryInterval 1s
attr unit s
par LoRaNetworkTest.loRaGW[0].ipv4.igmp lastMemberQueryCount 2
par LoRaNetworkTest.loRaGW[0].ipv4.igmp unsolicitedReportInterval 10s
attr unit s
par LoRaNetworkTest.loRaGW[0].ipv4.icmp typename "\"inet.networklayer.ipv4.Icmp\""
par LoRaNetworkTest.loRaGW[0].ipv4.icmp interfaceTableModule "\"LoRaNetworkTest.loRaGW[0].interfaceTable\""
par LoRaNetworkTest.loRaGW[0].ipv4.icmp routingTableModule "\"LoRaNetworkTest.loRaGW[0].ipv4.routingTable\""
par LoRaNetworkTest.loRaGW[0].ipv4.icmp crcMode "\"declared\""
attr enum declared,computed
attr mutable ""
par LoRaNetworkTest.loRaGW[0].ipv4.icmp quoteLength 8B
attr mutable ""
attr unit B
par LoRaNetworkTest.loRaGW[0].ipv4.mp typename "\"inet.common.MessageDispatcher\""
par LoRaNetworkTest.loRaGW[0].ipv4.mp displayStringTextFormat "\"processed %p pk (%l)\""
par LoRaNetworkTest.loRaGW[0].ipv4.mp forwardServiceRegistration true
par LoRaNetworkTest.loRaGW[0].ipv4.mp forwardProtocolRegistration true
par LoRaNetworkTest.loRaGW[0].ipv4.ip typename "\"inet.networklayer.ipv4.Ipv4\""
par LoRaNetworkTest.loRaGW[0].ipv4.ip interfaceTableModule "\"LoRaNetworkTest.loRaGW[0].interfaceTable\""
par LoRaNetworkTest.loRaGW[0].ipv4.ip routingTableModule "\"LoRaNetworkTest.loRaGW[0].ipv4.routingTable\""
par LoRaNetworkTest.loRaGW[0].ipv4.ip arpModule "\"LoRaNetworkTest.loRaGW[0].ipv4.arp\""
par LoRaNetworkTest.loRaGW[0].ipv4.ip icmpModule "\"LoRaNetworkTest.loRaGW[0].ipv4.icmp\""
par LoRaNetworkTest.loRaGW[0].ipv4.ip crcMode "\"declared\""
attr enum declared,computed
par LoRaNetworkTest.loRaGW[0].ipv4.ip timeToLive 32
par LoRaNetworkTest.loRaGW[0].ipv4.ip multicastTimeToLive 32
par LoRaNetworkTest.loRaGW[0].ipv4.ip fragmentTimeout 60s
attr unit s
par LoRaNetworkTest.loRaGW[0].ipv4.ip limitedBroadcast false
par LoRaNetworkTest.loRaGW[0].ipv4.ip directBroadcastInterfaces "\"\""
scalar LoRaNetworkTest.loRaGW[0].ipv4.ip packetDropAddressResolutionFailed:count 0
attr interpolationmode none
attr recordingmode count
attr source packetDropReasonIsAddressResolutionFailed(packetDropped)
attr title "packet drop: address resolution failed, count"
scalar LoRaNetworkTest.loRaGW[0].ipv4.ip packetDropAddressResolutionFailed:sum(packetBytes) 0
attr interpolationmode none
attr recordingmode sum(packetBytes)
attr source packetDropReasonIsAddressResolutionFailed(packetDropped)
attr title "packet drop: address resolution failed, sum(packetBytes)"
scalar LoRaNetworkTest.loRaGW[0].ipv4.ip packetDropHopLimitReached:count 0
attr interpolationmode none
attr recordingmode count
attr source packetDropReasonIsHopLimitReached(packetDropped)
attr title "packet drop: hop limit reached, count"
scalar LoRaNetworkTest.loRaGW[0].ipv4.ip packetDropHopLimitReached:sum(packetBytes) 0
attr interpolationmode none
attr recordingmode sum(packetBytes)
attr source packetDropReasonIsHopLimitReached(packetDropped)
attr title "packet drop: hop limit reached, sum(packetBytes)"
scalar LoRaNetworkTest.loRaGW[0].ipv4.ip packetDropForwardingDisabled:count 0
attr interpolationmode none
attr recordingmode count
attr source packetDropReasonIsForwardingDisabled(packetDropped)
attr title "packet drop: forwarding disabled, count"
scalar LoRaNetworkTest.loRaGW[0].ipv4.ip packetDropForwardingDisabled:sum(packetBytes) 0
attr interpolationmode none
attr recordingmode sum(packetBytes)
attr source packetDropReasonIsForwardingDisabled(packetDropped)
attr title "packet drop: forwarding disabled, sum(packetBytes)"
scalar LoRaNetworkTest.loRaGW[0].ipv4.ip packetDropNoInterfaceFound:count 0
attr interpolationmode none
attr recordingmode count
attr source packetDropReasonIsNoInterfaceFound(packetDropped)
attr title "packet drop: no interface found, count"
scalar LoRaNetworkTest.loRaGW[0].ipv4.ip packetDropNoInterfaceFound:sum(packetBytes) 0
attr interpolationmode none
attr recordingmode sum(packetBytes)
attr source packetDropReasonIsNoInterfaceFound(packetDropped)
attr title "packet drop: no interface found, sum(packetBytes)"
scalar LoRaNetworkTest.loRaGW[0].ipv4.ip packetDropNoRouteFound:count 0
attr interpolationmode none
attr recordingmode count
attr source packetDropReasonIsNoRouteFound(packetDropped)
attr title "packet drop: no route found, count"
scalar LoRaNetworkTest.loRaGW[0].ipv4.ip packetDropNoRouteFound:sum(packetBytes) 0
attr interpolationmode none
attr recordingmode sum(packetBytes)
attr source packetDropReasonIsNoRouteFound(packetDropped)
attr title "packet drop: no route found, sum(packetBytes)"
scalar LoRaNetworkTest.loRaGW[0].ipv4.ip packetDropUndefined:count 0
attr interpolationmode none
attr recordingmode count
attr source packetDropReasonIsUndefined(packetDropped)
attr title "packet drop: undefined, count"
scalar LoRaNetworkTest.loRaGW[0].ipv4.ip packetDropUndefined:sum(packetBytes) 0
attr interpolationmode none
attr recordingmode sum(packetBytes)
attr source packetDropReasonIsUndefined(packetDropped)
attr title "packet drop: undefined, sum(packetBytes)"
par LoRaNetworkTest.loRaGW[0].ipv4.arp typename "\"inet.networklayer.arp.ipv4.Arp\""
par LoRaNetworkTest.loRaGW[0].ipv4.arp interfaceTableModule "\"LoRaNetworkTest.loRaGW[0].interfaceTable\""
par LoRaNetworkTest.loRaGW[0].ipv4.arp routingTableModule "\"LoRaNetworkTest.loRaGW[0].ipv4.routingTable\""
par LoRaNetworkTest.loRaGW[0].ipv4.arp retryTimeout 1s
attr unit s
par LoRaNetworkTest.loRaGW[0].ipv4.arp retryCount 3
par LoRaNetworkTest.loRaGW[0].ipv4.arp cacheTimeout 120s
attr unit s
par LoRaNetworkTest.loRaGW[0].ipv4.arp proxyArpInterfaces "\"*\""
scalar LoRaNetworkTest.loRaGW[0].ipv4.arp arpResolutionFailed:count 0
attr recordingmode count
attr title "ARP failed resolutions, count"
scalar LoRaNetworkTest.loRaGW[0].ipv4.arp arpResolutionCompleted:count 1
attr recordingmode count
attr title "ARP completed resolutions, count"
scalar LoRaNetworkTest.loRaGW[0].ipv4.arp arpResolutionInitiated:count 1
attr recordingmode count
attr title "ARP initiated resolutions, count"
scalar LoRaNetworkTest.loRaGW[0].ipv4.arp arpReplySent:count 0
attr recordingmode count
attr source arpReplySent
attr title "ARP replies sent, count"
scalar LoRaNetworkTest.loRaGW[0].ipv4.arp arpReplySent:sum(packetBytes) 0
attr recordingmode sum(packetBytes)
attr source arpReplySent
attr title "ARP replies sent, sum(packetBytes)"
scalar LoRaNetworkTest.loRaGW[0].ipv4.arp arpRequestSent:count 1
attr recordingmode count
attr source arpRequestSent
attr title "ARP request sent, count"
scalar LoRaNetworkTest.loRaGW[0].ipv4.arp arpRequestSent:sum(packetBytes) 28
attr recordingmode sum(packetBytes)
attr source arpRequestSent
attr title "ARP request sent, sum(packetBytes)"
par LoRaNetworkTest.loRaGW[0].ipv4.lp typename "\"inet.common.MessageDispatcher\""
par LoRaNetworkTest.loRaGW[0].ipv4.lp displayStringTextFormat "\"processed %p pk (%l)\""
par LoRaNetworkTest.loRaGW[0].ipv4.lp forwardServiceRegistration true
par LoRaNetworkTest.loRaGW[0].ipv4.lp forwardProtocolRegistration true
par LoRaNetworkTest.loRaGW[0].ipv4 typename "\"inet.networklayer.ipv4.Ipv4NetworkLayer\""
par LoRaNetworkTest.loRaGW[0].ipv4 forwarding false
par LoRaNetworkTest.loRaGW[0].ipv4 multicastForwarding false
par LoRaNetworkTest.loRaGW[0].ipv4 interfaceTableModule "\"LoRaNetworkTest.loRaGW[0].interfaceTable\""
par LoRaNetworkTest.loRaGW[0].ipv4 displayStringTextFormat "\"%i\""
par LoRaNetworkTest.loRaGW[0].routingTable typename "\"inet.networklayer.ipv4.Ipv4RoutingTable\""
par LoRaNetworkTest.loRaGW[0].routingTable interfaceTableModule "\"LoRaNetworkTest.loRaGW[0].interfaceTable\""
par LoRaNetworkTest.loRaGW[0].routingTable routerId "\"auto\""
par LoRaNetworkTest.loRaGW[0].routingTable netmaskRoutes "\"*\""
par LoRaNetworkTest.loRaGW[0].routingTable forwarding true
par LoRaNetworkTest.loRaGW[0].routingTable multicastForwarding false
par LoRaNetworkTest.loRaGW[0].routingTable useAdminDist false
par LoRaNetworkTest.loRaGW[0].routingTable routingFile "\"\""
par LoRaNetworkTest.loRaGW[0].ethernet typename "\"inet.linklayer.ethernet.basic.EthernetEncapsulation\""
par LoRaNetworkTest.loRaGW[0].ethernet registerProtocol true
par LoRaNetworkTest.loRaGW[0].ethernet interfaceTableModule "\"LoRaNetworkTest.loRaGW[0].interfaceTable\""
par LoRaNetworkTest.loRaGW[0].ethernet fcsMode "\"declared\""
attr enum declared,computed
par LoRaNetworkTest.loRaGW[0].ethernet stopOperationExtraTime -1s
attr unit s
par LoRaNetworkTest.loRaGW[0].ethernet stopOperationTimeout 2s
attr unit s
scalar LoRaNetworkTest.loRaGW[0].ethernet pauseSent:count 0
attr recordingmode count
attr title "pause sent, count"
scalar LoRaNetworkTest.loRaGW[0].ethernet pauseSent:sum 0
attr recordingmode sum
attr title "pause sent, sum"
scalar LoRaNetworkTest.loRaGW[0].ethernet decapPk:count 1
attr interpolationmode none
attr recordingmode count
attr source decapPk
attr title "packets decapsulated, count"
scalar LoRaNetworkTest.loRaGW[0].ethernet decapPk:sum(packetBytes) 46
attr interpolationmode none
attr recordingmode sum(packetBytes)
attr source decapPk
attr title "packets decapsulated, sum(packetBytes)"
scalar LoRaNetworkTest.loRaGW[0].ethernet encapPk:count 2
attr interpolationmode none
attr recordingmode count
attr source encapPk
attr title "packets encapsulated, count"
scalar LoRaNetworkTest.loRaGW[0].ethernet encapPk:sum(packetBytes) 83
attr interpolationmode none
attr recordingmode sum(packetBytes)
attr source encapPk
attr title "packets encapsulated, sum(packetBytes)"
par LoRaNetworkTest.loRaGW[0] typename "\"flora.LoraNode.LoRaGW\""
par LoRaNetworkTest.loRaGW[0] numEthInterfaces 0
par LoRaNetworkTest.loRaGW[0] numWlanInterfaces 1
par LoRaNetworkTest.loRaGW[0] hasIpv4 true
par LoRaNetworkTest.loRaGW[0] networkLayerType "\"Ipv4NetworkLayer\""
par LoRaNetworkTest.loRaGW[0] routingTableType "\"Ipv4RoutingTable\""
par LoRaNetworkTest.loRaGW[0] numUdpApps 1
par LoRaNetworkTest.loRaGW[0] hasUdp true
par LoRaNetworkTest.loRaGW[0] udpType "\"\""
par LoRaNetworkTest.LoRaMedium.propagation typename "\"inet.physicallayer.wireless.common.propagation.ConstantSpeedPropagation\""
par LoRaNetworkTest.LoRaMedium.propagation propagationSpeed 2.99792e+08mps
attr unit mps
par LoRaNetworkTest.LoRaMedium.propagation ignoreMovementDuringTransmission true
par LoRaNetworkTest.LoRaMedium.propagation ignoreMovementDuringPropagation true
par LoRaNetworkTest.LoRaMedium.propagation ignoreMovementDuringReception true
scalar LoRaNetworkTest.LoRaMedium.propagation "Arrival computation count" 1
par LoRaNetworkTest.LoRaMedium.analogModel typename "\"flora.LoRaPhy.LoRaAnalogModel\""
par LoRaNetworkTest.LoRaMedium.analogModel ignorePartialInterference false
par LoRaNetworkTest.LoRaMedium.backgroundNoise typename "\"inet.physicallayer.wireless.common.backgroundnoise.DimensionalBackgroundNoise\""
par LoRaNetworkTest.LoRaMedium.backgroundNoise gainFunctionCacheLimit 0
par LoRaNetworkTest.LoRaMedium.backgroundNoise timeGains "\"left 0s 0dB left\""
par LoRaNetworkTest.LoRaMedium.backgroundNoise timeGainsNormalization "\"\""
attr enum ,maximum,integral
par LoRaNetworkTest.LoRaMedium.backgroundNoise frequencyGains "\"left 0Hz 0dB left\""
par LoRaNetworkTest.LoRaMedium.backgroundNoise frequencyGainsNormalization "\"integral\""
attr enum ,maximum,integral
par LoRaNetworkTest.LoRaMedium.backgroundNoise power -96.616dBm
attr unit dBm
par LoRaNetworkTest.LoRaMedium.pathLoss typename "\"flora.LoRaPhy.LoRaLogNormalShadowing\""
par LoRaNetworkTest.LoRaMedium.pathLoss alpha 2
par LoRaNetworkTest.LoRaMedium.pathLoss systemLoss 0dB
attr unit dB
par LoRaNetworkTest.LoRaMedium.pathLoss d0 40m
attr unit m
par LoRaNetworkTest.LoRaMedium.pathLoss gamma 2.08
par LoRaNetworkTest.LoRaMedium.pathLoss sigma 3.57
par LoRaNetworkTest.LoRaMedium.mediumLimitCache typename "\"inet.physicallayer.wireless.common.medium.MediumLimitCache\""
par LoRaNetworkTest.LoRaMedium.mediumLimitCache centerFrequency "nan Hz"
attr unit Hz
par LoRaNetworkTest.LoRaMedium.mediumLimitCache maxSpeed "nan mps"
attr unit mps
par LoRaNetworkTest.LoRaMedium.mediumLimitCache maxTransmissionPower "nan W"
attr unit W
par LoRaNetworkTest.LoRaMedium.mediumLimitCache minInterferencePower "nan dBm"
attr unit dBm
par LoRaNetworkTest.LoRaMedium.mediumLimitCache minReceptionPower "nan dBm"
attr unit dBm
par LoRaNetworkTest.LoRaMedium.mediumLimitCache maxAntennaGain 0dB
attr unit dB
par LoRaNetworkTest.LoRaMedium.mediumLimitCache minInterferenceTime 0s
attr unit s
par LoRaNetworkTest.LoRaMedium.mediumLimitCache maxTransmissionDuration 4s
attr unit s
par LoRaNetworkTest.LoRaMedium.mediumLimitCache maxCommunicationRange "nan m"
attr unit m
par LoRaNetworkTest.LoRaMedium.mediumLimitCache maxInterferenceRange "nan m"
attr unit m
par LoRaNetworkTest.LoRaMedium.communicationCache typename "\"inet.physicallayer.wireless.common.communicationcache.VectorCommunicationCache\""
par LoRaNetworkTest.LoRaMedium typename "\"flora.LoRaPhy.LoRaMedium\""
par LoRaNetworkTest.LoRaMedium physicalEnvironmentModule "\"physicalEnvironment\""
par LoRaNetworkTest.LoRaMedium signalAnalogRepresentation "\"scalar\""
attr enum unitDisk,scalar,dimensional
par LoRaNetworkTest.LoRaMedium rangeFilter "\"communicationRange\""
par LoRaNetworkTest.LoRaMedium radioModeFilter false
par LoRaNetworkTest.LoRaMedium listeningFilter false
par LoRaNetworkTest.LoRaMedium macAddressFilter false
par LoRaNetworkTest.LoRaMedium recordTransmissionLog false
par LoRaNetworkTest.LoRaMedium recordReceptionLog false
scalar LoRaNetworkTest.LoRaMedium "transmission count" 1
scalar LoRaNetworkTest.LoRaMedium "signal send count" 1
scalar LoRaNetworkTest.LoRaMedium "reception computation count" 1
[...]
attr interpolationmode none
attr recordingmode sum
attr source packetLength(packetDropReasonIsQueueOverflow(packetDropped))
attr title "dropped packet lengths: queue overflow, sum"
attr unit b
par LoRaNetworkTest.nsRouter.eth[0].mac typename "\"inet.linklayer.ethernet.basic.EthernetMac\""
par LoRaNetworkTest.nsRouter.eth[0].mac interfaceTableModule "\"LoRaNetworkTest.nsRouter.interfaceTable\""
par LoRaNetworkTest.nsRouter.eth[0].mac displayStringTextFormat "\"rate: %b\\nsent: %s, rcvd: %r\\nqueue: %q, drop: %d\""
par LoRaNetworkTest.nsRouter.eth[0].mac sendRawBytes false
par LoRaNetworkTest.nsRouter.eth[0].mac promiscuous false
par LoRaNetworkTest.nsRouter.eth[0].mac duplexMode true
par LoRaNetworkTest.nsRouter.eth[0].mac mtu 1500B
attr unit B
par LoRaNetworkTest.nsRouter.eth[0].mac fcsMode "\"declared\""
attr enum declared,computed
par LoRaNetworkTest.nsRouter.eth[0].mac stopOperationExtraTime -1s
attr unit s
par LoRaNetworkTest.nsRouter.eth[0].mac stopOperationTimeout 2s
attr unit s
scalar LoRaNetworkTest.nsRouter.eth[0].mac "simulated time" 1257.6528921267
scalar LoRaNetworkTest.nsRouter.eth[0].mac full-duplex 1
scalar LoRaNetworkTest.nsRouter.eth[0].mac "frames/sec sent" 0.0015902639055025
scalar LoRaNetworkTest.nsRouter.eth[0].mac "frames/sec rcvd" 0.00079513195275126
scalar LoRaNetworkTest.nsRouter.eth[0].mac "bits/sec sent" 0.87146462021538
scalar LoRaNetworkTest.nsRouter.eth[0].mac "bits/sec rcvd" 0.40710755980865
scalar LoRaNetworkTest.nsRouter.eth[0].mac "rx channel idle (%)" 99.9999999542
scalar LoRaNetworkTest.nsRouter.eth[0].mac "rx channel utilization (%)" 4.5799600478473e-08
scalar LoRaNetworkTest.nsRouter.eth[0].mac rxPausePkUnits:count 0
attr interpolationmode none
attr recordingmode count
attr title "pause units received, count"
scalar LoRaNetworkTest.nsRouter.eth[0].mac rxPausePkUnits:sum 0
attr interpolationmode none
attr recordingmode sum
attr title "pause units received, sum"
scalar LoRaNetworkTest.nsRouter.eth[0].mac txPausePkUnits:count 0
attr interpolationmode none
attr recordingmode count
attr title "pause units sent, count"
scalar LoRaNetworkTest.nsRouter.eth[0].mac txPausePkUnits:sum 0
attr interpolationmode none
attr recordingmode sum
attr title "pause units sent, sum"
scalar LoRaNetworkTest.nsRouter.eth[0].mac rxPkOk:count 1
attr interpolationmode none
attr recordingmode count
attr source rxPkOk
attr title "packets received OK, count"
scalar LoRaNetworkTest.nsRouter.eth[0].mac rxPkOk:sum(packetBytes) 64
attr interpolationmode none
attr recordingmode sum(packetBytes)
attr source rxPkOk
attr title "packets received OK, sum(packetBytes)"
scalar LoRaNetworkTest.nsRouter.eth[0].mac txPk:count 2
attr interpolationmode none
attr recordingmode count
attr source packetSentToLower
attr title "packets transmitted, count"
scalar LoRaNetworkTest.nsRouter.eth[0].mac txPk:sum(packetBytes) 137
attr interpolationmode none
attr recordingmode sum(packetBytes)
attr source packetSentToLower
attr title "packets transmitted, sum(packetBytes)"
scalar LoRaNetworkTest.nsRouter.eth[0].mac packetReceivedFromUpper:count 2
attr interpolationmode none
attr recordingmode count
attr source packetReceivedFromUpper
attr title "packet bytes from higher layer, count"
scalar LoRaNetworkTest.nsRouter.eth[0].mac packetReceivedFromUpper:sum(packetBytes) 119
attr interpolationmode none
attr recordingmode sum(packetBytes)
attr source packetReceivedFromUpper
attr title "packet bytes from higher layer, sum(packetBytes)"
scalar LoRaNetworkTest.nsRouter.eth[0].mac passedUpPk:count 1
attr interpolationmode none
attr recordingmode count
attr source packetSentToUpper
attr title "packets passed to higher layer, count"
scalar LoRaNetworkTest.nsRouter.eth[0].mac passedUpPk:sum(packetBytes) 64
attr interpolationmode none
attr recordingmode sum(packetBytes)
attr source packetSentToUpper
attr title "packets passed to higher layer, sum(packetBytes)"
scalar LoRaNetworkTest.nsRouter.eth[0].mac packetDropIncorrectlyReceived:count 0
attr interpolationmode none
attr recordingmode count
attr source packetDropReasonIsIncorrectlyReceived(packetDropped)
attr title "packet drop: incorrectly received, count"
scalar LoRaNetworkTest.nsRouter.eth[0].mac packetDropIncorrectlyReceived:sum(packetBytes) 0
attr interpolationmode none
attr recordingmode sum(packetBytes)
attr source packetDropReasonIsIncorrectlyReceived(packetDropped)
attr title "packet drop: incorrectly received, sum(packetBytes)"
scalar LoRaNetworkTest.nsRouter.eth[0].mac packetDropInterfaceDown:count 0
attr interpolationmode none
attr recordingmode count
attr source packetDropReasonIsInterfaceDown(packetDropped)
attr title "packet drop: interface down, count"
scalar LoRaNetworkTest.nsRouter.eth[0].mac packetDropInterfaceDown:sum(packetBytes) 0
attr interpolationmode none
attr recordingmode sum(packetBytes)
attr source packetDropReasonIsInterfaceDown(packetDropped)
attr title "packet drop: interface down, sum(packetBytes)"
scalar LoRaNetworkTest.nsRouter.eth[0].mac packetDropNotAddressedToUs:count 0
attr interpolationmode none
attr recordingmode count
attr source packetDropReasonIsNotAddressedToUs(packetDropped)
attr title "packet drop: not addressed to us, count"
scalar LoRaNetworkTest.nsRouter.eth[0].mac packetDropNotAddressedToUs:sum(packetBytes) 0
attr interpolationmode none
attr recordingmode sum(packetBytes)
attr source packetDropReasonIsNotAddressedToUs(packetDropped)
attr title "packet drop: not addressed to us, sum(packetBytes)"
par LoRaNetworkTest.nsRouter.eth[0] typename "\"inet.linklayer.ethernet.EthernetInterface\""
par LoRaNetworkTest.nsRouter.eth[0] displayStringTextFormat "\"%a (%i)\\n%m\""
par LoRaNetworkTest.nsRouter.eth[0] recordPcap false
par LoRaNetworkTest.nsRouter.eth[0] numPcapRecorders 0
par LoRaNetworkTest.nsRouter.eth[0] interfaceTableModule "\"LoRaNetworkTest.nsRouter.interfaceTable\""
par LoRaNetworkTest.nsRouter.eth[0] protocol "\"ethernetmac\""
par LoRaNetworkTest.nsRouter.eth[0] address "\"0A-AA-00-00-00-06\""
attr mutable ""
par LoRaNetworkTest.nsRouter.eth[0] duplexMode true
par LoRaNetworkTest.nsRouter.eth[0] csmacdSupport false
par LoRaNetworkTest.nsRouter.eth[0] bitrate 0bps
attr unit bps
par LoRaNetworkTest.nsRouter.eth[0] fcsMode "\"declared\""
attr enum declared,computed
scalar LoRaNetworkTest.nsRouter.eth[0] packetDropInterfaceDown:count 0
attr interpolationmode none
attr recordingmode count
attr source packetDropReasonIsInterfaceDown(packetDropped)
attr title "packet drops: interface down, count"
scalar LoRaNetworkTest.nsRouter.eth[0] packetDropInterfaceDown:sum(packetBytes) 0
attr interpolationmode none
attr recordingmode sum(packetBytes)
attr source packetDropReasonIsInterfaceDown(packetDropped)
attr title "packet drops: interface down, sum(packetBytes)"
scalar LoRaNetworkTest.nsRouter.eth[0] packetDropNoCarrier:count 0
attr interpolationmode none
attr recordingmode count
attr source packetDropReasonIsNoCarrier(packetDropped)
attr title "packet drops: no carrier, count"
scalar LoRaNetworkTest.nsRouter.eth[0] packetDropNoCarrier:sum(packetBytes) 0
attr interpolationmode none
attr recordingmode sum(packetBytes)
attr source packetDropReasonIsNoCarrier(packetDropped)
attr title "packet drops: no carrier, sum(packetBytes)"
par LoRaNetworkTest.nsRouter.ipv4.transportIn.channel typename "\"ned.IdealChannel\""
par LoRaNetworkTest.nsRouter.ipv4.up.out[0].channel typename "\"ned.IdealChannel\""
par LoRaNetworkTest.nsRouter.ipv4.lp.out[2].channel typename "\"ned.IdealChannel\""
par LoRaNetworkTest.nsRouter.ipv4.ifIn.channel typename "\"ned.IdealChannel\""
par LoRaNetworkTest.nsRouter.ipv4.configurator typename "\"inet.networklayer.configurator.ipv4.Ipv4NodeConfigurator\""
par LoRaNetworkTest.nsRouter.ipv4.configurator interfaceTableModule "\"LoRaNetworkTest.nsRouter.interfaceTable\""
par LoRaNetworkTest.nsRouter.ipv4.configurator routingTableModule "\"LoRaNetworkTest.nsRouter.ipv4.routingTable\""
par LoRaNetworkTest.nsRouter.ipv4.configurator networkConfiguratorModule "\"configurator\""
par LoRaNetworkTest.nsRouter.ipv4.configurator configureRoutingTable true
par LoRaNetworkTest.nsRouter.ipv4.routingTable typename "\"inet.networklayer.ipv4.Ipv4RoutingTable\""
par LoRaNetworkTest.nsRouter.ipv4.routingTable interfaceTableModule "\"LoRaNetworkTest.nsRouter.interfaceTable\""
par LoRaNetworkTest.nsRouter.ipv4.routingTable routerId "\"auto\""
par LoRaNetworkTest.nsRouter.ipv4.routingTable netmaskRoutes "\"*\""
par LoRaNetworkTest.nsRouter.ipv4.routingTable forwarding true
par LoRaNetworkTest.nsRouter.ipv4.routingTable multicastForwarding false
par LoRaNetworkTest.nsRouter.ipv4.routingTable useAdminDist false
par LoRaNetworkTest.nsRouter.ipv4.routingTable routingFile "\"\""
par LoRaNetworkTest.nsRouter.ipv4.natTable typename "\"inet.networklayer.ipv4.Ipv4NatTable\""
par LoRaNetworkTest.nsRouter.ipv4.natTable networkProtocolModule "\"^.ip\""
par LoRaNetworkTest.nsRouter.ipv4.natTable config "<config/> at content:1"
par LoRaNetworkTest.nsRouter.ipv4.up typename "\"inet.common.MessageDispatcher\""
par LoRaNetworkTest.nsRouter.ipv4.up displayStringTextFormat "\"processed %p pk (%l)\""
par LoRaNetworkTest.nsRouter.ipv4.up forwardServiceRegistration true
par LoRaNetworkTest.nsRouter.ipv4.up forwardProtocolRegistration true
par LoRaNetworkTest.nsRouter.ipv4.igmp typename "\"inet.networklayer.ipv4.Igmpv2\""
par LoRaNetworkTest.nsRouter.ipv4.igmp interfaceTableModule "\"LoRaNetworkTest.nsRouter.interfaceTable\""
par LoRaNetworkTest.nsRouter.ipv4.igmp routingTableModule "\"LoRaNetworkTest.nsRouter.ipv4.routingTable\""
par LoRaNetworkTest.nsRouter.ipv4.igmp crcMode "\"declared\""
attr enum declared,computed
par LoRaNetworkTest.nsRouter.ipv4.igmp enabled true
par LoRaNetworkTest.nsRouter.ipv4.igmp robustnessVariable 2
par LoRaNetworkTest.nsRouter.ipv4.igmp queryInterval 125s
attr unit s
par LoRaNetworkTest.nsRouter.ipv4.igmp queryResponseInterval 10s
attr unit s
par LoRaNetworkTest.nsRouter.ipv4.igmp groupMembershipInterval 260s
attr unit s
par LoRaNetworkTest.nsRouter.ipv4.igmp otherQuerierPresentInterval 255s
attr unit s
par LoRaNetworkTest.nsRouter.ipv4.igmp startupQueryInterval 31.25s
attr unit s
par LoRaNetworkTest.nsRouter.ipv4.igmp startupQueryCount 2
par LoRaNetworkTest.nsRouter.ipv4.igmp lastMemberQueryInterval 1s
attr unit s
par LoRaNetworkTest.nsRouter.ipv4.igmp lastMemberQueryCount 2
par LoRaNetworkTest.nsRouter.ipv4.igmp unsolicitedReportInterval 10s
attr unit s
par LoRaNetworkTest.nsRouter.ipv4.icmp typename "\"inet.networklayer.ipv4.Icmp\""
par LoRaNetworkTest.nsRouter.ipv4.icmp interfaceTableModule "\"LoRaNetworkTest.nsRouter.interfaceTable\""
par LoRaNetworkTest.nsRouter.ipv4.icmp routingTableModule "\"LoRaNetworkTest.nsRouter.ipv4.routingTable\""
par LoRaNetworkTest.nsRouter.ipv4.icmp crcMode "\"declared\""
attr enum declared,computed
attr mutable ""
par LoRaNetworkTest.nsRouter.ipv4.icmp quoteLength 8B
attr mutable ""
attr unit B
par LoRaNetworkTest.nsRouter.ipv4.mp typename "\"inet.common.MessageDispatcher\""
par LoRaNetworkTest.nsRouter.ipv4.mp displayStringTextFormat "\"processed %p pk (%l)\""
par LoRaNetworkTest.nsRouter.ipv4.mp forwardServiceRegistration true
par LoRaNetworkTest.nsRouter.ipv4.mp forwardProtocolRegistration true
par LoRaNetworkTest.nsRouter.ipv4.ip typename "\"inet.networklayer.ipv4.Ipv4\""
par LoRaNetworkTest.nsRouter.ipv4.ip interfaceTableModule "\"LoRaNetworkTest.nsRouter.interfaceTable\""
par LoRaNetworkTest.nsRouter.ipv4.ip routingTableModule "\"LoRaNetworkTest.nsRouter.ipv4.routingTable\""
par LoRaNetworkTest.nsRouter.ipv4.ip arpModule "\"LoRaNetworkTest.nsRouter.ipv4.arp\""
par LoRaNetworkTest.nsRouter.ipv4.ip icmpModule "\"LoRaNetworkTest.nsRouter.ipv4.icmp\""
par LoRaNetworkTest.nsRouter.ipv4.ip crcMode "\"declared\""
attr enum declared,computed
par LoRaNetworkTest.nsRouter.ipv4.ip timeToLive 32
par LoRaNetworkTest.nsRouter.ipv4.ip multicastTimeToLive 32
par LoRaNetworkTest.nsRouter.ipv4.ip fragmentTimeout 60s
attr unit s
par LoRaNetworkTest.nsRouter.ipv4.ip limitedBroadcast false
par LoRaNetworkTest.nsRouter.ipv4.ip directBroadcastInterfaces "\"\""
scalar LoRaNetworkTest.nsRouter.ipv4.ip packetDropAddressResolutionFailed:count 0
attr interpolationmode none
attr recordingmode count
attr source packetDropReasonIsAddressResolutionFailed(packetDropped)
attr title "packet drop: address resolution failed, count"
scalar LoRaNetworkTest.nsRouter.ipv4.ip packetDropAddressResolutionFailed:sum(packetBytes) 0
attr interpolationmode none
attr recordingmode sum(packetBytes)
attr source packetDropReasonIsAddressResolutionFailed(packetDropped)
attr title "packet drop: address resolution failed, sum(packetBytes)"
scalar LoRaNetworkTest.nsRouter.ipv4.ip packetDropHopLimitReached:count 0
attr interpolationmode none
attr recordingmode count
attr source packetDropReasonIsHopLimitReached(packetDropped)
attr title "packet drop: hop limit reached, count"
scalar LoRaNetworkTest.nsRouter.ipv4.ip packetDropHopLimitReached:sum(packetBytes) 0
attr interpolationmode none
attr recordingmode sum(packetBytes)
attr source packetDropReasonIsHopLimitReached(packetDropped)
attr title "packet drop: hop limit reached, sum(packetBytes)"
scalar LoRaNetworkTest.nsRouter.ipv4.ip packetDropForwardingDisabled:count 0
attr interpolationmode none
attr recordingmode count
attr source packetDropReasonIsForwardingDisabled(packetDropped)
attr title "packet drop: forwarding disabled, count"
scalar LoRaNetworkTest.nsRouter.ipv4.ip packetDropForwardingDisabled:sum(packetBytes) 0
attr interpolationmode none
attr recordingmode sum(packetBytes)
attr source packetDropReasonIsForwardingDisabled(packetDropped)
attr title "packet drop: forwarding disabled, sum(packetBytes)"
scalar LoRaNetworkTest.nsRouter.ipv4.ip packetDropNoInterfaceFound:count 0
attr interpolationmode none
attr recordingmode count
attr source packetDropReasonIsNoInterfaceFound(packetDropped)
attr title "packet drop: no interface found, count"
scalar LoRaNetworkTest.nsRouter.ipv4.ip packetDropNoInterfaceFound:sum(packetBytes) 0
attr interpolationmode none
attr recordingmode sum(packetBytes)
attr source packetDropReasonIsNoInterfaceFound(packetDropped)
attr title "packet drop: no interface found, sum(packetBytes)"
scalar LoRaNetworkTest.nsRouter.ipv4.ip packetDropNoRouteFound:count 0
attr interpolationmode none
attr recordingmode count
attr source packetDropReasonIsNoRouteFound(packetDropped)
attr title "packet drop: no route found, count"
scalar LoRaNetworkTest.nsRouter.ipv4.ip packetDropNoRouteFound:sum(packetBytes) 0
attr interpolationmode none
attr recordingmode sum(packetBytes)
attr source packetDropReasonIsNoRouteFound(packetDropped)
attr title "packet drop: no route found, sum(packetBytes)"
scalar LoRaNetworkTest.nsRouter.ipv4.ip packetDropUndefined:count 0
attr interpolationmode none
attr recordingmode count
attr source packetDropReasonIsUndefined(packetDropped)
attr title "packet drop: undefined, count"
scalar LoRaNetworkTest.nsRouter.ipv4.ip packetDropUndefined:sum(packetBytes) 0
attr interpolationmode none
attr recordingmode sum(packetBytes)
attr source packetDropReasonIsUndefined(packetDropped)
attr title "packet drop: undefined, sum(packetBytes)"
par LoRaNetworkTest.nsRouter.ipv4.arp typename "\"inet.networklayer.arp.ipv4.Arp\""
par LoRaNetworkTest.nsRouter.ipv4.arp interfaceTableModule "\"LoRaNetworkTest.nsRouter.interfaceTable\""
par LoRaNetworkTest.nsRouter.ipv4.arp routingTableModule "\"LoRaNetworkTest.nsRouter.ipv4.routingTable\""
par LoRaNetworkTest.nsRouter.ipv4.arp retryTimeout 1s
attr unit s
par LoRaNetworkTest.nsRouter.ipv4.arp retryCount 3
par LoRaNetworkTest.nsRouter.ipv4.arp cacheTimeout 120s
attr unit s
par LoRaNetworkTest.nsRouter.ipv4.arp proxyArpInterfaces "\"*\""
scalar LoRaNetworkTest.nsRouter.ipv4.arp arpResolutionFailed:count 0
attr recordingmode count
attr title "ARP failed resolutions, count"
scalar LoRaNetworkTest.nsRouter.ipv4.arp arpResolutionCompleted:count 1
attr recordingmode count
attr title "ARP completed resolutions, count"
scalar LoRaNetworkTest.nsRouter.ipv4.arp arpResolutionInitiated:count 1
attr recordingmode count
attr title "ARP initiated resolutions, count"
scalar LoRaNetworkTest.nsRouter.ipv4.arp arpReplySent:count 0
attr recordingmode count
attr source arpReplySent
attr title "ARP replies sent, count"
scalar LoRaNetworkTest.nsRouter.ipv4.arp arpReplySent:sum(packetBytes) 0
attr recordingmode sum(packetBytes)
attr source arpReplySent
attr title "ARP replies sent, sum(packetBytes)"
scalar LoRaNetworkTest.nsRouter.ipv4.arp arpRequestSent:count 1
attr recordingmode count
attr source arpRequestSent
attr title "ARP request sent, count"
scalar LoRaNetworkTest.nsRouter.ipv4.arp arpRequestSent:sum(packetBytes) 28
attr recordingmode sum(packetBytes)
attr source arpRequestSent
attr title "ARP request sent, sum(packetBytes)"
par LoRaNetworkTest.nsRouter.ipv4.lp typename "\"inet.common.MessageDispatcher\""
par LoRaNetworkTest.nsRouter.ipv4.lp displayStringTextFormat "\"processed %p pk (%l)\""
par LoRaNetworkTest.nsRouter.ipv4.lp forwardServiceRegistration true
par LoRaNetworkTest.nsRouter.ipv4.lp forwardProtocolRegistration true
par LoRaNetworkTest.nsRouter.ipv4 typename "\"inet.networklayer.ipv4.Ipv4NetworkLayer\""
par LoRaNetworkTest.nsRouter.ipv4 forwarding true
par LoRaNetworkTest.nsRouter.ipv4 multicastForwarding false
par LoRaNetworkTest.nsRouter.ipv4 interfaceTableModule "\"LoRaNetworkTest.nsRouter.interfaceTable\""
par LoRaNetworkTest.nsRouter.ipv4 displayStringTextFormat "\"%i\""
par LoRaNetworkTest.nsRouter.nl typename "\"inet.common.MessageDispatcher\""
par LoRaNetworkTest.nsRouter.nl displayStringTextFormat "\"processed %p pk (%l)\""
par LoRaNetworkTest.nsRouter.nl forwardServiceRegistration true
par LoRaNetworkTest.nsRouter.nl forwardProtocolRegistration true
par LoRaNetworkTest.nsRouter.tn typename "\"inet.common.MessageDispatcher\""
par LoRaNetworkTest.nsRouter.tn displayStringTextFormat "\"processed %p pk (%l)\""
par LoRaNetworkTest.nsRouter.tn forwardServiceRegistration true
par LoRaNetworkTest.nsRouter.tn forwardProtocolRegistration true
par LoRaNetworkTest.nsRouter.at typename "\"inet.common.MessageDispatcher\""
par LoRaNetworkTest.nsRouter.at displayStringTextFormat "\"processed %p pk (%l)\""
par LoRaNetworkTest.nsRouter.at forwardServiceRegistration true
par LoRaNetworkTest.nsRouter.at forwardProtocolRegistration true
par LoRaNetworkTest.nsRouter typename "\"inet.node.inet.Router\""
par LoRaNetworkTest.nsRouter hasStatus false
par LoRaNetworkTest.nsRouter osgModel "\"\""
par LoRaNetworkTest.nsRouter osgModelColor "\"\""
par LoRaNetworkTest.nsRouter canvasImage "\"\""
par LoRaNetworkTest.nsRouter canvasImageColor "\"\""
par LoRaNetworkTest.nsRouter recordPcap false
par LoRaNetworkTest.nsRouter numPcapRecorders 0
par LoRaNetworkTest.nsRouter numLoInterfaces 1
par LoRaNetworkTest.nsRouter numWlanInterfaces 0
par LoRaNetworkTest.nsRouter numEthInterfaces 0
par LoRaNetworkTest.nsRouter numPppInterfaces 0
par LoRaNetworkTest.nsRouter numTunInterfaces 0
par LoRaNetworkTest.nsRouter numVirtInterfaces 0
par LoRaNetworkTest.nsRouter fcsMode "\"declared\""
attr enum declared,computed
par LoRaNetworkTest.nsRouter hasIpv4 true
par LoRaNetworkTest.nsRouter hasIpv6 false
par LoRaNetworkTest.nsRouter hasGn false
par LoRaNetworkTest.nsRouter forwarding true
par LoRaNetworkTest.nsRouter multicastForwarding false
par LoRaNetworkTest.nsRouter hasUdp false
par LoRaNetworkTest.nsRouter hasTcp false
par LoRaNetworkTest.nsRouter hasSctp false
par LoRaNetworkTest.nsRouter numApps 0
par LoRaNetworkTest.nsRouter hasEigrp false
par LoRaNetworkTest.nsRouter hasOspf false
par LoRaNetworkTest.nsRouter hasRip false
par LoRaNetworkTest.nsRouter hasBgp false
par LoRaNetworkTest.nsRouter hasPim false
par LoRaNetworkTest.nsRouter hasDhcp false
par LoRaNetworkTest typename "\"flora.simulations.LoRaNetworkTest\""
par LoRaNetworkTest numberOfNodes 1
par LoRaNetworkTest numberOfGateways 1
par LoRaNetworkTest networkSizeX 500
par LoRaNetworkTest networkSizeY 500

