version 3
run General-0-20230420-12:56:46-30884
attr configname General
attr datetime 20230420-12:56:46
attr datetimef 20230420-125646
attr experiment General
attr inifile omnetpp.ini
attr iterationvars "$0=\"avg\""
attr iterationvarsd avg
attr iterationvarsf avg-
attr measurement "$0=\"avg\""
attr network flora.simulations.LoRaNetworkTest
attr processid 30884
attr repetition 0
attr replication #0
attr resultdir results
attr runnumber 0
attr seedset 0
config image-path ../../../Downloads/omnetpp-6.0.1/samples/inet4.4/images
config network flora.simulations.LoRaNetworkTest
config **.maxTransmissionDuration 4s
config **.energyDetection -110dBm
config **.vector-recording true
config rng-class cMersenneTwister
config **.loRaGW[*].numUdpApps 1
config **.loRaGW[0].packetForwarder.localPort 2000
config **.loRaGW[0].packetForwarder.destPort 1000
config **.loRaGW[0].packetForwarder.destAddresses "\"networkServer\""
config **.loRaGW[0].packetForwarder.indexNumber 0
config **.networkServer.numApps 1
config **.networkServer.**.evaluateADRinServer true
config **.networkServer.app[0].typename NetworkServerApp
config **.networkServer.app[0].destAddresses "\"loRaGW[0]\""
config **.networkServer.app[0].destPort 2000
config **.networkServer.app[0].localPort 1000
config **.networkServer.app[0].adrMethod "\"avg\""
config **.numberOfPacketsToSend 0
config sim-time-limit 1d
config simtime-resolution -11
config repeat 30
config **.timeToFirstPacket exponential(1000s)
config **.timeToNextPacket exponential(1000s)
config **.alohaChannelModel false
config **.numberOfNodes 1
config **.constraintAreaMaxX 1000m
config **.constraintAreaMaxY 1000m
config **.loRaNodes[0].**.initialX 300m
config **.loRaNodes[0].**.initialY 350m
config **.loRaNodes[0].**initialLoRaSF 12
config **.loRaNodes[0].**initialLoRaTP 14dBm
config **.loRaNodes[0].**initialLoRaBW "125 kHz"
config **.loRaNodes[0].**initialLoRaCR 4
config **.loRaNodes[0].**.initFromDisplayString false
config **.loRaNodes[0].**.evaluateADRinNode true
config **.loRaNodes[*].numApps 1
config **.loRaNodes[*].app[0].typename SimpleLoRaApp
config **.numberOfGateways 1
config **.loRaGW[0].**.initialX 200.00m
config **.loRaGW[0].**.initialY 200.00m
config **.LoRaGWNic.radio.iAmGateway true
config **.loRaGW[*].**.initFromDisplayString false
config **.loRaNodes[*].LoRaNic.radio.energyConsumer.typename LoRaEnergyConsumer
config **.loRaNodes[*].**.energySourceModule "\"^.IdealEpEnergyStorage\""
config **.loRaNodes[*].LoRaNic.radio.energyConsumer.configFile "xmldoc(\"energyConsumptionParameters.xml\")"
config **.sigma 3.57
config **.constraintAreaMinX 0m
config **.constraintAreaMinY 0m
config **.constraintAreaMinZ 0m
config **.constraintAreaMaxZ 0m
config LoRaNetworkTest.**.radio.separateTransmissionParts false
config LoRaNetworkTest.**.radio.separateReceptionParts false
config **.ipv4Delayer.config "xmldoc(\"cloudDelays.xml\")"
config **.radio.radioMediumModule "\"LoRaMedium\""
config **.LoRaMedium.pathLossType "\"LoRaLogNormalShadowing\""
config **.minInterferenceTime 0s
config **.displayAddresses false
config **.LoRaMedium.mediumLimitCacheType "\"LoRaMediumCache\""
config **.LoRaMedium.rangeFilter "\"communicationRange\""
config **.LoRaMedium.neighborCacheType "\"LoRaNeighborCache\""
config **.LoRaMedium.neighborCache.range 546m
config **.LoRaMedium.neighborCache.refillPeriod 3000s

vector 0 LoRaNetworkTest.loRaGW[0].udp passedUpPk:vector(count) ETV
attr interpolationmode none
attr recordingmode vector(count)
attr source packetSentToUpper
attr title "packets passed up, count"
vector 1 LoRaNetworkTest.loRaGW[0].udp droppedPkWrongPort:vector(count) ETV
attr interpolationmode none
attr recordingmode vector(count)
attr source packetDropReasonIsNoPortFound(packetDropped)
attr title "packets dropped (wrong port), count"
vector 2 LoRaNetworkTest.loRaGW[0].udp droppedPkBadChecksum:vector(count) ETV
attr interpolationmode none
attr recordingmode vector(count)
attr source packetDropReasonIsIncorrectlyReceived(packetDropped)
attr title "packets dropped (checksum error), count"
vector 3 LoRaNetworkTest.networkServer.udp passedUpPk:vector(count) ETV
attr interpolationmode none
attr recordingmode vector(count)
attr source packetSentToUpper
attr title "packets passed up, count"
vector 4 LoRaNetworkTest.networkServer.udp droppedPkWrongPort:vector(count) ETV
attr interpolationmode none
attr recordingmode vector(count)
attr source packetDropReasonIsNoPortFound(packetDropped)
attr title "packets dropped (wrong port), count"
vector 5 LoRaNetworkTest.networkServer.udp droppedPkBadChecksum:vector(count) ETV
attr interpolationmode none
attr recordingmode vector(count)
attr source packetDropReasonIsIncorrectlyReceived(packetDropped)
attr title "packets dropped (checksum error), count"
vector 6 LoRaNetworkTest.internetCloud.ppp[0].ppp transmissionState:vector ETV
attr interpolationmode sample-hold
attr recordingmode vector
attr source transmissionStateChanged
attr title "tx state"
vector 7 LoRaNetworkTest.internetCloud.ppp[1].ppp transmissionState:vector ETV
attr interpolationmode sample-hold
attr recordingmode vector
attr source transmissionStateChanged
attr title "tx state"
vector 8 LoRaNetworkTest.gwRouter[0].ppp[0].ppp transmissionState:vector ETV
attr interpolationmode sample-hold
attr recordingmode vector
attr source transmissionStateChanged
attr title "tx state"
vector 9 LoRaNetworkTest.nsRouter.ppp[0].ppp transmissionState:vector ETV
attr interpolationmode sample-hold
attr recordingmode vector
attr source transmissionStateChanged
attr title "tx state"
vector 10 LoRaNetworkTest.loRaNodes[0].LoRaNic.radio.IdealEpEnergyStorage powerConsumption:vector ETV
attr interpolationmode sample-hold
attr recordingmode vector
attr source powerConsumptionChanged
attr title "Power consumption"
vector 11 LoRaNetworkTest.loRaNodes[0].LoRaNic.radio radioMode:vector ETV
attr interpolationmode sample-hold
attr recordingmode vector
attr source radioModeChanged
attr title "Radio mode"
vector 12 LoRaNetworkTest.loRaNodes[0].LoRaNic.radio.energyConsumer powerConsumption:vector ETV
attr interpolationmode sample-hold
attr recordingmode vector
attr source powerConsumptionChanged
attr title "Power consumption"
vector 13 LoRaNetworkTest.loRaGW[0].LoRaGWNic.radio radioMode:vector ETV
attr interpolationmode sample-hold
attr recordingmode vector
attr source radioModeChanged
attr title "Radio mode"
vector 14 LoRaNetworkTest.loRaGW[0].LoRaGWNic.radio receptionState:vector ETV
attr interpolationmode sample-hold
attr recordingmode vector
attr source receptionStateChanged
attr title "Radio reception state"
vector 15 LoRaNetworkTest.loRaGW[0].LoRaGWNic.radio transmissionState:vector ETV
attr interpolationmode sample-hold
attr recordingmode vector
attr source transmissionStateChanged
attr title "Radio transmission state"
0	0	0	0
1	0	0	0
2	0	0	0
3	0	0	0
4	0	0	0
5	0	0	0
6	0	0	0
7	0	0	0
8	0	0	0
9	0	0	0
10	0	0	0
10	0	0	0
10	0	0	0
10	0	0	0
11	0	0	0
11	0	0	0
11	0	0	1
12	0	0	0
12	0	0	0
12	0	0	0
13	0	0	0
13	0	0	0
13	0	0	4
14	0	0	1
15	0	0	1
vector 16 LoRaNetworkTest.loRaNodes[0].app[0] "SF Vector" ETV
vector 17 LoRaNetworkTest.loRaNodes[0].app[0] "TP Vector" ETV
16	3	1255.93075804739	12
17	3	1255.93075804739	14
vector 18 LoRaNetworkTest.loRaNodes[0].LoRaNic.queue incomingPacketLengths:vector ETV
attr interpolationmode none
attr recordingmode vector
attr source packetLength(packetPushStarted)
attr title "incoming packet lengths"
attr unit b
vector 19 LoRaNetworkTest.loRaNodes[0].LoRaNic.queue incomingDataRate:vector ETV
attr interpolationmode linear
attr recordingmode vector
attr source throughput(packetPushStarted)
attr title "incoming datarate"
attr unit bps
vector 20 LoRaNetworkTest.loRaNodes[0].LoRaNic.queue queueingTime:vector ETV
attr interpolationmode none
attr recordingmode vector
attr source queueingTime(packetPulled)
attr title "queueing times"
attr unit s
vector 21 LoRaNetworkTest.loRaNodes[0].LoRaNic.queue outgoingPacketLengths:vector ETV
attr interpolationmode none
attr recordingmode vector
attr source packetLength(packetPulled)
attr title "outgoing packet lengths"
attr unit b
vector 22 LoRaNetworkTest.loRaNodes[0].LoRaNic.queue outgoingDataRate:vector ETV
attr interpolationmode linear
attr recordingmode vector
attr source throughput(packetPulled)
attr title "outgoing datarate"
attr unit bps
vector 23 LoRaNetworkTest.loRaNodes[0].LoRaNic.radio.IdealEpEnergyStorage residualEnergyCapacity:vector ETV
attr interpolationmode linear
attr recordingmode vector
attr source residualEnergyCapacityChanged
attr title "Residual energy capacity"
vector 24 LoRaNetworkTest.loRaNodes[0].LoRaNic.radio transmissionState:vector ETV
attr interpolationmode sample-hold
attr recordingmode vector
attr source transmissionStateChanged
attr title "Radio transmission state"
vector 25 LoRaNetworkTest.loRaNodes[0].LoRaNic.queue queueLength:vector ETV
attr autoWarmupFilter false
attr interpolationmode sample-hold
attr recordingmode vector
attr source "warmup(atomic(constant0(packetPushEnded) + count(packetPushStarted) - count(packetPulled) - count(packetRemoved) - count(packetDropped)))"
attr title "queue length"
attr unit pk
vector 26 LoRaNetworkTest.loRaNodes[0].LoRaNic.queue queueBitLength:vector ETV
attr autoWarmupFilter false
attr interpolationmode sample-hold
attr recordingmode vector
attr source "warmup(atomic(constant0(packetPushEnded) + sum(packetLength(packetPushStarted)) - sum(packetLength(packetPulled)) - sum(packetLength(packetRemoved)) - sum(packetLength(packetDropped))))"
attr title "queue bit length"
attr unit b
10	4	1255.93075804739	0.1452
10	4	1255.93075804739	0.1452
11	4	1255.93075804739	3
12	4	1255.93075804739	0.1452
12	4	1255.93075804739	0.1452
18	4	1255.93075804739	80
19	4	0.1	0
19	4	0.2	0
19	4	0.3	0
19	4	0.4	0
19	4	0.5	0
19	4	0.6	0
19	4	0.7	0
19	4	0.8	0
19	4	0.9	0
19	4	1	0
19	4	1.1	0
19	4	1.2	0
19	4	1.3	0
19	4	1.4	0
19	4	1.5	0
19	4	1.6	0
19	4	1.7	0
19	4	1.8	0
19	4	1.9	0
19	4	2	0
19	4	2.1	0
19	4	2.2	0
19	4	2.3	0
19	4	2.4	0
19	4	2.5	0
19	4	2.6	0
19	4	2.7	0
19	4	2.8	0
19	4	2.9	0
19	4	3	0
19	4	3.1	0
19	4	3.2	0
19	4	3.3	0
19	4	3.4	0
19	4	3.5	0
19	4	3.6	0
19	4	3.7	0
19	4	3.8	0
19	4	3.9	0
19	4	4	0
19	4	4.1	0
19	4	4.2	0
19	4	4.3	0
19	4	4.4	0
19	4	4.5	0
19	4	4.6	0
19	4	4.7	0
19	4	4.8	0
19	4	4.9	0
19	4	5	0
19	4	5.1	0
19	4	5.2	0
19	4	5.3	0
19	4	5.4	0
19	4	5.5	0
19	4	5.6	0
19	4	5.7	0
19	4	5.8	0
19	4	5.9	0
19	4	6	0
19	4	6.1	0
19	4	6.2	0
19	4	6.3	0
19	4	6.4	0
19	4	6.5	0
19	4	6.6	0
19	4	6.7	0
19	4	6.8	0
19	4	6.9	0
19	4	7	0
19	4	7.1	0
19	4	7.2	0
19	4	7.3	0
19	4	7.4	0
19	4	7.5	0
19	4	7.6	0
19	4	7.7	0
19	4	7.8	0
19	4	7.9	0
19	4	8	0
19	4	8.1	0
19	4	8.2	0
19	4	8.3	0
19	4	8.4	0
19	4	8.5	0
19	4	8.6	0
19	4	8.7	0
19	4	8.8	0
19	4	8.9	0
19	4	9	0
19	4	9.1	0
19	4	9.2	0
19	4	9.3	0
19	4	9.4	0
19	4	9.5	0
19	4	9.6	0
19	4	9.7	0
19	4	9.8	0
19	4	9.9	0
19	4	10	0
19	4	10.1	0
19	4	10.2	0
19	4	10.3	0
19	4	10.4	0
19	4	10.5	0
19	4	10.6	0
19	4	10.7	0
19	4	10.8	0
19	4	10.9	0
19	4	11	0
19	4	11.1	0
19	4	11.2	0
19	4	11.3	0
19	4	11.4	0
19	4	11.5	0
19	4	11.6	0
19	4	11.7	0
19	4	11.8	0
19	4	11.9	0
19	4	12	0
19	4	12.1	0
19	4	12.2	0
19	4	12.3	0
19	4	12.4	0
19	4	12.5	0
19	4	12.6	0
19	4	12.7	0
19	4	12.8	0
19	4	12.9	0
19	4	13	0
19	4	13.1	0
19	4	13.2	0
19	4	13.3	0
19	4	13.4	0
19	4	13.5	0
19	4	13.6	0
19	4	13.7	0
19	4	13.8	0
19	4	13.9	0
19	4	14	0
19	4	14.1	0
19	4	14.2	0
19	4	14.3	0
19	4	14.4	0
19	4	14.5	0
19	4	14.6	0
19	4	14.7	0
19	4	14.8	0
19	4	14.9	0
19	4	15	0
19	4	15.1	0
19	4	15.2	0
19	4	15.3	0
19	4	15.4	0
19	4	15.5	0
19	4	15.6	0
19	4	15.7	0
19	4	15.8	0
19	4	15.9	0
19	4	16	0
19	4	16.1	0
19	4	16.2	0
19	4	16.3	0
19	4	16.4	0
19	4	16.5	0
19	4	16.6	0
19	4	16.7	0
19	4	16.8	0
19	4	16.9	0
19	4	17	0
19	4	17.1	0
19	4	17.2	0
19	4	17.3	0
19	4	17.4	0
19	4	17.5	0
19	4	17.6	0
19	4	17.7	0
19	4	17.8	0
19	4	17.9	0
19	4	18	0
19	4	18.1	0
19	4	18.2	0
19	4	18.3	0
19	4	18.4	0
19	4	18.5	0
19	4	18.6	0
19	4	18.7	0
19	4	18.8	0
19	4	18.9	0
19	4	19	0
19	4	19.1	0
19	4	19.2	0
19	4	19.3	0
19	4	19.4	0
19	4	19.5	0
19	4	19.6	0
19	4	19.7	0
19	4	19.8	0
19	4	19.9	0
19	4	20	0
19	4	20.1	0
19	4	20.2	0
19	4	20.3	0
19	4	20.4	0
19	4	20.5	0
19	4	20.6	0
19	4	20.7	0
19	4	20.8	0
19	4	20.9	0
19	4	21	0
19	4	21.1	0
19	4	21.2	0
19	4	21.3	0
19	4	21.4	0
19	4	21.5	0
19	4	21.6	0
19	4	21.7	0
19	4	21.8	0
19	4	21.9	0
19	4	22	0
19	4	22.1	0
19	4	22.2	0
19	4	22.3	0
19	4	22.4	0
19	4	22.5	0
19	4	22.6	0
19	4	22.7	0
19	4	22.8	0
19	4	22.9	0
19	4	23	0
19	4	23.1	0
19	4	23.2	0
19	4	23.3	0
19	4	23.4	0
19	4	23.5	0
19	4	23.6	0
19	4	23.7	0
19	4	23.8	0
19	4	23.9	0
19	4	24	0
19	4	24.1	0
19	4	24.2	0
19	4	24.3	0
19	4	24.4	0
19	4	24.5	0
19	4	24.6	0
19	4	24.7	0
19	4	24.8	0
19	4	24.9	0
19	4	25	0
19	4	25.1	0
19	4	25.2	0
19	4	25.3	0
19	4	25.4	0
19	4	25.5	0
19	4	25.6	0
19	4	25.7	0
19	4	25.8	0
19	4	25.9	0
19	4	26	0
19	4	26.1	0
19	4	26.2	0
19	4	26.3	0
19	4	26.4	0
19	4	26.5	0
19	4	26.6	0
19	4	26.7	0
19	4	26.8	0
19	4	26.9	0
19	4	27	0
19	4	27.1	0
19	4	27.2	0
19	4	27.3	0
19	4	27.4	0
19	4	27.5	0
19	4	27.6	0
19	4	27.7	0
19	4	27.8	0
19	4	27.9	0
19	4	28	0
19	4	28.1	0
19	4	28.2	0
19	4	28.3	0
19	4	28.4	0
19	4	28.5	0
19	4	28.6	0
19	4	28.7	0
19	4	28.8	0
19	4	28.9	0
19	4	29	0
19	4	29.1	0
19	4	29.2	0
19	4	29.3	0
19	4	29.4	0
19	4	29.5	0
19	4	29.6	0
19	4	29.7	0
19	4	29.8	0
19	4	29.9	0
19	4	30	0
19	4	30.1	0
19	4	30.2	0
19	4	30.3	0
19	4	30.4	0
19	4	30.5	0
19	4	30.6	0
19	4	30.7	0
19	4	30.8	0
19	4	30.9	0
19	4	31	0
19	4	31.1	0
19	4	31.2	0
19	4	31.3	0
19	4	31.4	0
19	4	31.5	0
19	4	31.6	0
19	4	31.7	0
19	4	31.8	0
19	4	31.9	0
19	4	32	0
19	4	32.1	0
19	4	32.2	0
19	4	32.3	0
19	4	32.4	0
19	4	32.5	0
19	4	32.6	0
19	4	32.7	0
19	4	32.8	0
19	4	32.9	0
19	4	33	0
19	4	33.1	0
19	4	33.2	0
19	4	33.3	0
19	4	33.4	0
19	4	33.5	0
19	4	33.6	0
19	4	33.7	0
19	4	33.8	0
19	4	33.9	0
19	4	34	0
19	4	34.1	0
19	4	34.2	0
19	4	34.3	0
19	4	34.4	0
19	4	34.5	0
19	4	34.6	0
19	4	34.7	0
19	4	34.8	0
19	4	34.9	0
19	4	35	0
19	4	35.1	0
19	4	35.2	0
19	4	35.3	0
19	4	35.4	0
19	4	35.5	0
19	4	35.6	0
19	4	35.7	0
19	4	35.8	0
19	4	35.9	0
19	4	36	0
19	4	36.1	0
19	4	36.2	0
19	4	36.3	0
19	4	36.4	0
19	4	36.5	0
19	4	36.6	0
19	4	36.7	0
19	4	36.8	0
19	4	36.9	0
19	4	37	0
19	4	37.1	0
19	4	37.2	0
19	4	37.3	0
19	4	37.4	0
19	4	37.5	0
19	4	37.6	0
19	4	37.7	0
19	4	37.8	0
19	4	37.9	0
19	4	38	0
19	4	38.1	0
19	4	38.2	0
19	4	38.3	0
19	4	38.4	0
19	4	38.5	0
19	4	38.6	0
19	4	38.7	0
19	4	38.8	0
19	4	38.9	0
19	4	39	0
19	4	39.1	0
19	4	39.2	0
19	4	39.3	0
19	4	39.4	0
19	4	39.5	0
19	4	39.6	0
19	4	39.7	0
19	4	39.8	0
19	4	39.9	0
19	4	40	0
19	4	40.1	0
19	4	40.2	0
19	4	40.3	0
19	4	40.4	0
19	4	40.5	0
19	4	40.6	0
19	4	40.7	0
19	4	40.8	0
19	4	40.9	0
19	4	41	0
19	4	41.1	0
19	4	41.2	0
19	4	41.3	0
19	4	41.4	0
19	4	41.5	0
19	4	41.6	0
19	4	41.7	0
19	4	41.8	0
19	4	41.9	0
19	4	42	0
19	4	42.1	0
19	4	42.2	0
19	4	42.3	0
19	4	42.4	0
19	4	42.5	0
19	4	42.6	0
19	4	42.7	0
19	4	42.8	0
19	4	42.9	0
19	4	43	0
19	4	43.1	0
19	4	43.2	0
19	4	43.3	0
19	4	43.4	0
19	4	43.5	0
19	4	43.6	0
19	4	43.7	0
19	4	43.8	0
19	4	43.9	0
19	4	44	0
19	4	44.1	0
19	4	44.2	0
19	4	44.3	0
19	4	44.4	0
19	4	44.5	0
19	4	44.6	0
19	4	44.7	0
19	4	44.8	0
19	4	44.9	0
19	4	45	0
19	4	45.1	0
19	4	45.2	0
19	4	45.3	0
19	4	45.4	0
19	4	45.5	0
19	4	45.6	0
19	4	45.7	0
19	4	45.8	0
19	4	45.9	0
19	4	46	0
19	4	46.1	0
19	4	46.2	0
19	4	46.3	0
19	4	46.4	0
19	4	46.5	0
19	4	46.6	0
19	4	46.7	0
19	4	46.8	0
19	4	46.9	0
19	4	47	0
19	4	47.1	0
19	4	47.2	0
19	4	47.3	0
19	4	47.4	0
19	4	47.5	0
19	4	47.6	0
19	4	47.7	0
19	4	47.8	0
19	4	47.9	0
19	4	48	0
19	4	48.1	0
19	4	48.2	0
19	4	48.3	0
19	4	48.4	0
19	4	48.5	0
19	4	48.6	0
19	4	48.7	0
19	4	48.8	0
19	4	48.9	0
19	4	49	0
19	4	49.1	0
19	4	49.2	0
19	4	49.3	0
19	4	49.4	0
19	4	49.5	0
19	4	49.6	0
19	4	49.7	0
19	4	49.8	0
19	4	49.9	0
19	4	50	0
19	4	50.1	0
19	4	50.2	0
19	4	50.3	0
19	4	50.4	0
19	4	50.5	0
19	4	50.6	0
19	4	50.7	0
19	4	50.8	0
19	4	50.9	0
19	4	51	0
19	4	51.1	0
19	4	51.2	0
19	4	51.3	0
19	4	51.4	0
19	4	51.5	0
19	4	51.6	0
19	4	51.7	0
19	4	51.8	0
19	4	51.9	0
19	4	52	0
19	4	52.1	0
19	4	52.2	0
19	4	52.3	0
19	4	52.4	0
19	4	52.5	0
19	4	52.6	0
19	4	52.7	0
19	4	52.8	0
19	4	52.9	0
19	4	53	0
19	4	53.1	0
19	4	53.2	0
19	4	53.3	0
19	4	53.4	0
19	4	53.5	0
19	4	53.6	0
19	4	53.7	0
19	4	53.8	0
19	4	53.9	0
19	4	54	0
19	4	54.1	0
19	4	54.2	0
19	4	54.3	0
19	4	54.4	0
19	4	54.5	0
19	4	54.6	0
19	4	54.7	0
19	4	54.8	0
19	4	54.9	0
19	4	55	0
19	4	55.1	0
19	4	55.2	0
19	4	55.3	0
19	4	55.4	0
19	4	55.5	0
19	4	55.6	0
19	4	55.7	0
19	4	55.8	0
19	4	55.9	0
19	4	56	0
19	4	56.1	0
19	4	56.2	0
19	4	56.3	0
19	4	56.4	0
19	4	56.5	0
19	4	56.6	0
19	4	56.7	0
19	4	56.8	0
19	4	56.9	0
19	4	57	0
19	4	57.1	0
19	4	57.2	0
19	4	57.3	0
19	4	57.4	0
19	4	57.5	0
19	4	57.6	0
19	4	57.7	0
19	4	57.8	0
19	4	57.9	0
19	4	58	0
19	4	58.1	0
19	4	58.2	0
19	4	58.3	0
19	4	58.4	0
19	4	58.5	0
19	4	58.6	0
19	4	58.7	0
19	4	58.8	0
19	4	58.9	0
19	4	59	0
19	4	59.1	0
19	4	59.2	0
19	4	59.3	0
19	4	59.4	0
19	4	59.5	0
19	4	59.6	0
19	4	59.7	0
19	4	59.8	0
19	4	59.9	0
19	4	60	0
19	4	60.1	0
19	4	60.2	0
19	4	60.3	0
19	4	60.4	0
19	4	60.5	0
19	4	60.6	0
19	4	60.7	0
19	4	60.8	0
19	4	60.9	0
19	4	61	0
19	4	61.1	0
19	4	61.2	0
19	4	61.3	0
19	4	61.4	0
19	4	61.5	0
19	4	61.6	0
19	4	61.7	0
19	4	61.8	0
19	4	61.9	0
19	4	62	0
19	4	62.1	0
19	4	62.2	0
19	4	62.3	0
19	4	62.4	0
19	4	62.5	0
19	4	62.6	0
19	4	62.7	0
19	4	62.8	0
19	4	62.9	0
19	4	63	0
19	4	63.1	0
19	4	63.2	0
19	4	63.3	0
19	4	63.4	0
19	4	63.5	0
19	4	63.6	0
19	4	63.7	0
19	4	63.8	0
19	4	63.9	0
19	4	64	0
19	4	64.1	0
19	4	64.2	0
19	4	64.3	0
19	4	64.4	0
19	4	64.5	0
19	4	64.6	0
19	4	64.7	0
19	4	64.8	0
19	4	64.9	0
19	4	65	0
19	4	65.1	0
19	4	65.2	0
19	4	65.3	0
19	4	65.4	0
19	4	65.5	0
19	4	65.6	0
19	4	65.7	0
19	4	65.8	0
19	4	65.9	0
19	4	66	0
19	4	66.1	0
19	4	66.2	0
19	4	66.3	0
19	4	66.4	0
19	4	66.5	0
19	4	66.6	0
19	4	66.7	0
19	4	66.8	0
19	4	66.9	0
19	4	67	0
19	4	67.1	0
19	4	67.2	0
19	4	67.3	0
19	4	67.4	0
19	4	67.5	0
19	4	67.6	0
19	4	67.7	0
19	4	67.8	0
19	4	67.9	0
19	4	68	0
19	4	68.1	0
19	4	68.2	0
19	4	68.3	0
19	4	68.4	0
19	4	68.5	0
19	4	68.6	0
19	4	68.7	0
19	4	68.8	0
19	4	68.9	0
19	4	69	0
19	4	69.1	0
19	4	69.2	0
19	4	69.3	0
19	4	69.4	0
19	4	69.5	0
19	4	69.6	0
19	4	69.7	0
19	4	69.8	0
19	4	69.9	0
19	4	70	0
19	4	70.1	0
19	4	70.2	0
19	4	70.3	0
19	4	70.4	0
19	4	70.5	0
19	4	70.6	0
19	4	70.7	0
19	4	70.8	0
19	4	70.9	0
19	4	71	0
19	4	71.1	0
19	4	71.2	0
19	4	71.3	0
19	4	71.4	0
19	4	71.5	0
19	4	71.6	0
19	4	71.7	0
19	4	71.8	0
19	4	71.9	0
19	4	72	0
19	4	72.1	0
19	4	72.2	0
19	4	72.3	0
19	4	72.4	0
19	4	72.5	0
19	4	72.6	0
19	4	72.7	0
19	4	72.8	0
19	4	72.9	0
19	4	73	0
19	4	73.1	0
19	4	73.2	0
19	4	73.3	0
19	4	73.4	0
19	4	73.5	0
19	4	73.6	0
19	4	73.7	0
19	4	73.8	0
19	4	73.9	0
19	4	74	0
19	4	74.1	0
19	4	74.2	0
19	4	74.3	0
19	4	74.4	0
19	4	74.5	0
19	4	74.6	0
19	4	74.7	0
19	4	74.8	0
19	4	74.9	0
19	4	75	0
19	4	75.1	0
19	4	75.2	0
19	4	75.3	0
19	4	75.4	0
19	4	75.5	0
19	4	75.6	0
19	4	75.7	0
19	4	75.8	0
19	4	75.9	0
19	4	76	0
19	4	76.1	0
19	4	76.2	0
19	4	76.3	0
19	4	76.4	0
19	4	76.5	0
19	4	76.6	0
19	4	76.7	0
19	4	76.8	0
19	4	76.9	0
19	4	77	0
19	4	77.1	0
19	4	77.2	0
19	4	77.3	0
19	4	77.4	0
19	4	77.5	0
19	4	77.6	0
19	4	77.7	0
19	4	77.8	0
19	4	77.9	0
19	4	78	0
19	4	78.1	0
19	4	78.2	0
19	4	78.3	0
19	4	78.4	0
19	4	78.5	0
19	4	78.6	0
19	4	78.7	0
19	4	78.8	0
19	4	78.9	0
19	4	79	0
19	4	79.1	0
19	4	79.2	0
19	4	79.3	0
19	4	79.4	0
19	4	79.5	0
19	4	79.6	0
19	4	79.7	0
19	4	79.8	0
19	4	79.9	0
19	4	80	0
19	4	80.1	0
19	4	80.2	0
19	4	80.3	0
19	4	80.4	0
19	4	80.5	0
19	4	80.6	0
19	4	80.7	0
19	4	80.8	0
19	4	80.9	0
19	4	81	0
19	4	81.1	0
19	4	81.2	0
19	4	81.3	0
19	4	81.4	0
19	4	81.5	0
19	4	81.6	0
19	4	81.7	0
19	4	81.8	0
19	4	81.9	0
19	4	82	0
19	4	82.1	0
19	4	82.2	0
19	4	82.3	0
19	4	82.4	0
19	4	82.5	0
19	4	82.6	0
19	4	82.7	0
19	4	82.8	0
19	4	82.9	0
19	4	83	0
19	4	83.1	0
19	4	83.2	0
19	4	83.3	0
19	4	83.4	0
19	4	83.5	0
19	4	83.6	0
19	4	83.7	0
19	4	83.8	0
19	4	83.9	0
19	4	84	0
19	4	84.1	0
19	4	84.2	0
19	4	84.3	0
19	4	84.4	0
19	4	84.5	0
19	4	84.6	0
19	4	84.7	0
19	4	84.8	0
19	4	84.9	0
19	4	85	0
19	4	85.1	0
19	4	85.2	0
19	4	85.3	0
19	4	85.4	0
19	4	85.5	0
19	4	85.6	0
19	4	85.7	0
19	4	85.8	0
19	4	85.9	0
19	4	86	0
19	4	86.1	0
19	4	86.2	0
19	4	86.3	0
19	4	86.4	0
19	4	86.5	0
19	4	86.6	0
19	4	86.7	0
19	4	86.8	0
19	4	86.9	0
19	4	87	0
19	4	87.1	0
19	4	87.2	0
19	4	87.3	0
19	4	87.4	0
19	4	87.5	0
19	4	87.6	0
19	4	87.7	0
19	4	87.8	0
19	4	87.9	0
19	4	88	0
19	4	88.1	0
19	4	88.2	0
19	4	88.3	0
19	4	88.4	0
19	4	88.5	0
19	4	88.6	0
19	4	88.7	0
19	4	88.8	0
19	4	88.9	0
19	4	89	0
19	4	89.1	0
19	4	89.2	0
19	4	89.3	0
19	4	89.4	0
19	4	89.5	0
19	4	89.6	0
19	4	89.7	0
19	4	89.8	0
19	4	89.9	0
19	4	90	0
19	4	90.1	0
19	4	90.2	0
19	4	90.3	0
19	4	90.4	0
19	4	90.5	0
19	4	90.6	0
19	4	90.7	0
19	4	90.8	0
19	4	90.9	0
19	4	91	0
19	4	91.1	0
19	4	91.2	0
19	4	91.3	0
19	4	91.4	0
19	4	91.5	0
19	4	91.6	0
19	4	91.7	0
19	4	91.8	0
19	4	91.9	0
19	4	92	0
19	4	92.1	0
19	4	92.2	0
19	4	92.3	0
19	4	92.4	0
19	4	92.5	0
19	4	92.6	0
19	4	92.7	0
19	4	92.8	0
19	4	92.9	0
19	4	93	0
19	4	93.1	0
19	4	93.2	0
19	4	93.3	0
19	4	93.4	0
19	4	93.5	0
19	4	93.6	0
19	4	93.7	0
19	4	93.8	0
19	4	93.9	0
19	4	94	0
19	4	94.1	0
19	4	94.2	0
19	4	94.3	0
19	4	94.4	0
19	4	94.5	0
19	4	94.6	0
19	4	94.7	0
19	4	94.8	0
19	4	94.9	0
19	4	95	0
19	4	95.1	0
19	4	95.2	0
19	4	95.3	0
19	4	95.4	0
19	4	95.5	0
19	4	95.6	0
19	4	95.7	0
19	4	95.8	0
19	4	95.9	0
19	4	96	0
19	4	96.1	0
19	4	96.2	0
19	4	96.3	0
19	4	96.4	0
19	4	96.5	0
19	4	96.6	0
19	4	96.7	0
19	4	96.8	0
19	4	96.9	0
19	4	97	0
19	4	97.1	0
19	4	97.2	0
19	4	97.3	0
19	4	97.4	0
19	4	97.5	0
19	4	97.6	0
19	4	97.7	0
19	4	97.8	0
19	4	97.9	0
19	4	98	0
19	4	98.1	0
19	4	98.2	0
19	4	98.3	0
19	4	98.4	0
19	4	98.5	0
19	4	98.6	0
19	4	98.7	0
19	4	98.8	0
19	4	98.9	0
19	4	99	0
19	4	99.1	0
19	4	99.2	0
19	4	99.3	0
19	4	99.4	0
19	4	99.5	0
19	4	99.6	0
19	4	99.7	0
19	4	99.8	0
19	4	99.9	0
19	4	100	0
19	4	100.1	0
19	4	100.2	0
19	4	100.3	0
19	4	100.4	0
19	4	100.5	0
19	4	100.6	0
19	4	100.7	0
19	4	100.8	0
19	4	100.9	0
19	4	101	0
19	4	101.1	0
19	4	101.2	0
19	4	101.3	0
19	4	101.4	0
19	4	101.5	0
19	4	101.6	0
19	4	101.7	0
19	4	101.8	0
19	4	101.9	0
19	4	102	0
19	4	102.1	0
19	4	102.2	0
19	4	102.3	0
19	4	102.4	0
19	4	102.5	0
19	4	102.6	0
19	4	102.7	0
19	4	102.8	0
19	4	102.9	0
19	4	103	0
19	4	103.1	0
19	4	103.2	0
19	4	103.3	0
19	4	103.4	0
19	4	103.5	0
19	4	103.6	0
19	4	103.7	0
19	4	103.8	0
19	4	103.9	0
19	4	104	0
19	4	104.1	0
19	4	104.2	0
19	4	104.3	0
19	4	104.4	0
19	4	104.5	0
19	4	104.6	0
19	4	104.7	0
19	4	104.8	0
19	4	104.9	0
19	4	105	0
19	4	105.1	0
19	4	105.2	0
19	4	105.3	0
19	4	105.4	0
19	4	105.5	0
19	4	105.6	0
19	4	105.7	0
19	4	105.8	0
19	4	105.9	0
19	4	106	0
19	4	106.1	0
19	4	106.2	0
19	4	106.3	0
19	4	106.4	0
19	4	106.5	0
19	4	106.6	0
19	4	106.7	0
19	4	106.8	0
19	4	106.9	0
19	4	107	0
19	4	107.1	0
19	4	107.2	0
19	4	107.3	0
19	4	107.4	0
19	4	107.5	0
19	4	107.6	0
19	4	107.7	0
19	4	107.8	0
19	4	107.9	0
19	4	108	0
19	4	108.1	0
19	4	108.2	0
19	4	108.3	0
19	4	108.4	0
19	4	108.5	0
19	4	108.6	0
19	4	108.7	0
19	4	108.8	0
19	4	108.9	0
19	4	109	0
19	4	109.1	0
19	4	109.2	0
19	4	109.3	0
19	4	109.4	0
19	4	109.5	0
19	4	109.6	0
19	4	109.7	0
19	4	109.8	0
19	4	109.9	0
19	4	110	0
19	4	110.1	0
19	4	110.2	0
19	4	110.3	0
19	4	110.4	0
19	4	110.5	0
19	4	110.6	0
19	4	110.7	0
19	4	110.8	0
19	4	110.9	0
19	4	111	0
19	4	111.1	0
19	4	111.2	0
19	4	111.3	0
19	4	111.4	0
19	4	111.5	0
19	4	111.6	0
19	4	111.7	0
19	4	111.8	0
19	4	111.9	0
19	4	112	0
19	4	112.1	0
19	4	112.2	0
19	4	112.3	0
19	4	112.4	0
19	4	112.5	0
19	4	112.6	0
19	4	112.7	0
19	4	112.8	0
19	4	112.9	0
19	4	113	0
19	4	113.1	0
19	4	113.2	0
19	4	113.3	0
19	4	113.4	0
19	4	113.5	0
19	4	113.6	0
19	4	113.7	0
19	4	113.8	0
19	4	113.9	0
19	4	114	0
19	4	114.1	0
19	4	114.2	0
19	4	114.3	0
19	4	114.4	0
19	4	114.5	0
19	4	114.6	0
19	4	114.7	0
19	4	114.8	0
19	4	114.9	0
19	4	115	0
19	4	115.1	0
19	4	115.2	0
19	4	115.3	0
19	4	115.4	0
19	4	115.5	0
19	4	115.6	0
19	4	115.7	0
19	4	115.8	0
19	4	115.9	0
19	4	116	0
19	4	116.1	0
19	4	116.2	0
19	4	116.3	0
19	4	116.4	0
19	4	116.5	0
19	4	116.6	0
19	4	116.7	0
19	4	116.8	0
19	4	116.9	0
19	4	117	0
19	4	117.1	0
19	4	117.2	0
19	4	117.3	0
19	4	117.4	0
19	4	117.5	0
19	4	117.6	0
19	4	117.7	0
19	4	117.8	0
19	4	117.9	0
19	4	118	0
19	4	118.1	0
19	4	118.2	0
19	4	118.3	0
19	4	118.4	0
19	4	118.5	0
19	4	118.6	0
19	4	118.7	0
19	4	118.8	0
19	4	118.9	0
19	4	119	0
19	4	119.1	0
19	4	119.2	0
19	4	119.3	0
19	4	119.4	0
19	4	119.5	0
19	4	119.6	0
19	4	119.7	0
19	4	119.8	0
19	4	119.9	0
19	4	120	0
19	4	120.1	0
19	4	120.2	0
19	4	120.3	0
19	4	120.4	0
19	4	120.5	0
19	4	120.6	0
19	4	120.7	0
19	4	120.8	0
19	4	120.9	0
19	4	121	0
19	4	121.1	0
19	4	121.2	0
19	4	121.3	0
19	4	121.4	0
19	4	121.5	0
19	4	121.6	0
19	4	121.7	0
19	4	121.8	0
19	4	121.9	0
19	4	122	0
19	4	122.1	0
19	4	122.2	0
19	4	122.3	0
19	4	122.4	0
19	4	122.5	0
19	4	122.6	0
19	4	122.7	0
19	4	122.8	0
19	4	122.9	0
19	4	123	0
19	4	123.1	0
19	4	123.2	0
19	4	123.3	0
19	4	123.4	0
19	4	123.5	0
19	4	123.6	0
19	4	123.7	0
19	4	123.8	0
19	4	123.9	0
19	4	124	0
19	4	124.1	0
19	4	124.2	0
19	4	124.3	0
19	4	124.4	0
19	4	124.5	0
19	4	124.6	0
19	4	124.7	0
19	4	124.8	0
19	4	124.9	0
19	4	125	0
19	4	125.1	0
19	4	125.2	0
19	4	125.3	0
19	4	125.4	0
19	4	125.5	0
19	4	125.6	0
19	4	125.7	0
19	4	125.8	0
19	4	125.9	0
19	4	126	0
19	4	126.1	0
19	4	126.2	0
19	4	126.3	0
19	4	126.4	0
19	4	126.5	0
19	4	126.6	0
19	4	126.7	0
19	4	126.8	0
19	4	126.9	0
19	4	127	0
19	4	127.1	0
19	4	127.2	0
19	4	127.3	0
19	4	127.4	0
19	4	127.5	0
19	4	127.6	0
19	4	127.7	0
19	4	127.8	0
19	4	127.9	0
19	4	128	0
19	4	128.1	0
19	4	128.2	0
19	4	128.3	0
19	4	128.4	0
19	4	128.5	0
19	4	128.6	0
19	4	128.7	0
19	4	128.8	0
19	4	128.9	0
19	4	129	0
19	4	129.1	0
19	4	129.2	0
19	4	129.3	0
19	4	129.4	0
19	4	129.5	0
19	4	129.6	0
19	4	129.7	0
19	4	129.8	0
19	4	129.9	0
19	4	130	0
19	4	130.1	0
19	4	130.2	0
19	4	130.3	0
19	4	130.4	0
19	4	130.5	0
19	4	130.6	0
19	4	130.7	0
19	4	130.8	0
19	4	130.9	0
19	4	131	0
19	4	131.1	0
19	4	131.2	0
19	4	131.3	0
19	4	131.4	0
19	4	131.5	0
19	4	131.6	0
19	4	131.7	0
19	4	131.8	0
19	4	131.9	0
19	4	132	0
19	4	132.1	0
19	4	132.2	0
19	4	132.3	0
19	4	132.4	0
19	4	132.5	0
19	4	132.6	0
19	4	132.7	0
19	4	132.8	0
19	4	132.9	0
19	4	133	0
19	4	133.1	0
19	4	133.2	0
19	4	133.3	0
19	4	133.4	0
19	4	133.5	0
19	4	133.6	0
19	4	133.7	0
19	4	133.8	0
19	4	133.9	0
19	4	134	0
19	4	134.1	0
19	4	134.2	0
19	4	134.3	0
19	4	134.4	0
19	4	134.5	0
19	4	134.6	0
19	4	134.7	0
19	4	134.8	0
19	4	134.9	0
19	4	135	0
19	4	135.1	0
19	4	135.2	0
19	4	135.3	0
19	4	135.4	0
19	4	135.5	0
19	4	135.6	0
19	4	135.7	0
19	4	135.8	0
19	4	135.9	0
19	4	136	0
19	4	136.1	0
19	4	136.2	0
19	4	136.3	0
19	4	136.4	0
19	4	136.5	0
19	4	136.6	0
19	4	136.7	0
19	4	136.8	0
19	4	136.9	0
19	4	137	0
19	4	137.1	0
19	4	137.2	0
19	4	137.3	0
19	4	137.4	0
19	4	137.5	0
19	4	137.6	0
19	4	137.7	0
19	4	137.8	0
19	4	137.9	0
19	4	138	0
19	4	138.1	0
19	4	138.2	0
19	4	138.3	0
19	4	138.4	0
19	4	138.5	0
19	4	138.6	0
19	4	138.7	0
19	4	138.8	0
19	4	138.9	0
19	4	139	0
19	4	139.1	0
19	4	139.2	0
19	4	139.3	0
19	4	139.4	0
19	4	139.5	0
19	4	139.6	0
19	4	139.7	0
19	4	139.8	0
19	4	139.9	0
19	4	140	0
19	4	140.1	0
19	4	140.2	0
19	4	140.3	0
19	4	140.4	0
19	4	140.5	0
19	4	140.6	0
19	4	140.7	0
19	4	140.8	0
19	4	140.9	0
19	4	141	0
19	4	141.1	0
19	4	141.2	0
19	4	141.3	0
19	4	141.4	0
19	4	141.5	0
19	4	141.6	0
19	4	141.7	0
19	4	141.8	0
19	4	141.9	0
19	4	142	0
19	4	142.1	0
19	4	142.2	0
19	4	142.3	0
19	4	142.4	0
19	4	142.5	0
19	4	142.6	0
19	4	142.7	0
19	4	142.8	0
19	4	142.9	0
19	4	143	0
19	4	143.1	0
19	4	143.2	0
19	4	143.3	0
19	4	143.4	0
19	4	143.5	0
19	4	143.6	0
19	4	143.7	0
19	4	143.8	0
19	4	143.9	0
19	4	144	0
19	4	144.1	0
19	4	144.2	0
19	4	144.3	0
19	4	144.4	0
19	4	144.5	0
19	4	144.6	0
19	4	144.7	0
19	4	144.8	0
19	4	144.9	0
19	4	145	0
19	4	145.1	0
19	4	145.2	0
19	4	145.3	0
19	4	145.4	0
19	4	145.5	0
19	4	145.6	0
19	4	145.7	0
19	4	145.8	0
19	4	145.9	0
19	4	146	0
19	4	146.1	0
19	4	146.2	0
19	4	146.3	0
19	4	146.4	0
19	4	146.5	0
19	4	146.6	0
19	4	146.7	0
19	4	146.8	0
19	4	146.9	0
19	4	147	0
19	4	147.1	0
19	4	147.2	0
19	4	147.3	0
19	4	147.4	0
19	4	147.5	0
19	4	147.6	0
19	4	147.7	0
19	4	147.8	0
19	4	147.9	0
19	4	148	0
19	4	148.1	0
19	4	148.2	0
19	4	148.3	0
19	4	148.4	0
19	4	148.5	0
19	4	148.6	0
19	4	148.7	0
19	4	148.8	0
19	4	148.9	0
19	4	149	0
19	4	149.1	0
19	4	149.2	0
19	4	149.3	0
19	4	149.4	0
19	4	149.5	0
19	4	149.6	0
19	4	149.7	0
19	4	149.8	0
19	4	149.9	0
19	4	150	0
19	4	150.1	0
19	4	150.2	0
19	4	150.3	0
19	4	150.4	0
19	4	150.5	0
19	4	150.6	0
19	4	150.7	0
19	4	150.8	0
19	4	150.9	0
19	4	151	0
19	4	151.1	0
19	4	151.2	0
19	4	151.3	0
19	4	151.4	0
19	4	151.5	0
19	4	151.6	0
19	4	151.7	0
19	4	151.8	0
19	4	151.9	0
19	4	152	0
19	4	152.1	0
19	4	152.2	0
19	4	152.3	0
19	4	152.4	0
19	4	152.5	0
19	4	152.6	0
19	4	152.7	0
19	4	152.8	0
19	4	152.9	0
19	4	153	0
19	4	153.1	0
19	4	153.2	0
19	4	153.3	0
19	4	153.4	0
19	4	153.5	0
19	4	153.6	0
19	4	153.7	0
19	4	153.8	0
19	4	153.9	0
19	4	154	0
19	4	154.1	0
19	4	154.2	0
19	4	154.3	0
19	4	154.4	0
19	4	154.5	0
19	4	154.6	0
19	4	154.7	0
19	4	154.8	0
19	4	154.9	0
19	4	155	0
19	4	155.1	0
19	4	155.2	0
19	4	155.3	0
19	4	155.4	0
19	4	155.5	0
19	4	155.6	0
19	4	155.7	0
19	4	155.8	0
19	4	155.9	0
19	4	156	0
19	4	156.1	0
19	4	156.2	0
19	4	156.3	0
19	4	156.4	0
19	4	156.5	0
19	4	156.6	0
19	4	156.7	0
19	4	156.8	0
19	4	156.9	0
19	4	157	0
19	4	157.1	0
19	4	157.2	0
19	4	157.3	0
19	4	157.4	0
19	4	157.5	0
19	4	157.6	0
19	4	157.7	0
19	4	157.8	0
19	4	157.9	0
19	4	158	0
19	4	158.1	0
19	4	158.2	0
19	4	158.3	0
19	4	158.4	0
19	4	158.5	0
19	4	158.6	0
19	4	158.7	0
19	4	158.8	0
19	4	158.9	0
19	4	159	0
19	4	159.1	0
19	4	159.2	0
19	4	159.3	0
19	4	159.4	0
19	4	159.5	0
19	4	159.6	0
19	4	159.7	0
19	4	159.8	0
19	4	159.9	0
19	4	160	0
19	4	160.1	0
19	4	160.2	0
19	4	160.3	0
19	4	160.4	0
19	4	160.5	0
19	4	160.6	0
19	4	160.7	0
19	4	160.8	0
19	4	160.9	0
19	4	161	0
19	4	161.1	0
19	4	161.2	0
19	4	161.3	0
19	4	161.4	0
19	4	161.5	0
19	4	161.6	0
19	4	161.7	0
19	4	161.8	0
19	4	161.9	0
19	4	162	0
19	4	162.1	0
19	4	162.2	0
19	4	162.3	0
19	4	162.4	0
19	4	162.5	0
19	4	162.6	0
19	4	162.7	0
19	4	162.8	0
19	4	162.9	0
19	4	163	0
19	4	163.1	0
19	4	163.2	0
19	4	163.3	0
19	4	163.4	0
19	4	163.5	0
19	4	163.6	0
19	4	163.7	0
19	4	163.8	0
19	4	163.9	0
19	4	164	0
19	4	164.1	0
19	4	164.2	0
19	4	164.3	0
19	4	164.4	0
19	4	164.5	0
19	4	164.6	0
19	4	164.7	0
19	4	164.8	0
19	4	164.9	0
19	4	165	0
19	4	165.1	0
19	4	165.2	0
19	4	165.3	0
19	4	165.4	0
19	4	165.5	0
19	4	165.6	0
19	4	165.7	0
19	4	165.8	0
19	4	165.9	0
19	4	166	0
19	4	166.1	0
19	4	166.2	0
19	4	166.3	0
19	4	166.4	0
19	4	166.5	0
19	4	166.6	0
19	4	166.7	0
19	4	166.8	0
19	4	166.9	0
19	4	167	0
19	4	167.1	0
19	4	167.2	0
19	4	167.3	0
19	4	167.4	0
19	4	167.5	0
19	4	167.6	0
19	4	167.7	0
19	4	167.8	0
19	4	167.9	0
19	4	168	0
19	4	168.1	0
19	4	168.2	0
19	4	168.3	0
19	4	168.4	0
19	4	168.5	0
19	4	168.6	0
19	4	168.7	0
19	4	168.8	0
19	4	168.9	0
19	4	169	0
19	4	169.1	0
19	4	169.2	0
19	4	169.3	0
19	4	169.4	0
19	4	169.5	0
19	4	169.6	0
19	4	169.7	0
19	4	169.8	0
19	4	169.9	0
19	4	170	0
19	4	170.1	0
19	4	170.2	0
19	4	170.3	0
19	4	170.4	0
19	4	170.5	0
19	4	170.6	0
19	4	170.7	0
19	4	170.8	0
19	4	170.9	0
19	4	171	0
19	4	171.1	0
19	4	171.2	0
19	4	171.3	0
19	4	171.4	0
19	4	171.5	0
19	4	171.6	0
19	4	171.7	0
19	4	171.8	0
19	4	171.9	0
19	4	172	0
19	4	172.1	0
19	4	172.2	0
19	4	172.3	0
19	4	172.4	0
19	4	172.5	0
19	4	172.6	0
19	4	172.7	0
19	4	172.8	0
19	4	172.9	0
19	4	173	0
19	4	173.1	0
19	4	173.2	0
19	4	173.3	0
19	4	173.4	0
19	4	173.5	0
19	4	173.6	0
19	4	173.7	0
19	4	173.8	0
19	4	173.9	0
19	4	174	0
19	4	174.1	0
19	4	174.2	0
19	4	174.3	0
19	4	174.4	0
19	4	174.5	0
19	4	174.6	0
19	4	174.7	0
19	4	174.8	0
19	4	174.9	0
19	4	175	0
19	4	175.1	0
19	4	175.2	0
19	4	175.3	0
19	4	175.4	0
19	4	175.5	0
19	4	175.6	0
19	4	175.7	0
19	4	175.8	0
19	4	175.9	0
19	4	176	0
19	4	176.1	0
19	4	176.2	0
19	4	176.3	0
19	4	176.4	0
19	4	176.5	0
19	4	176.6	0
19	4	176.7	0
19	4	176.8	0
19	4	176.9	0
19	4	177	0
19	4	177.1	0
19	4	177.2	0
19	4	177.3	0
19	4	177.4	0
19	4	177.5	0
19	4	177.6	0
19	4	177.7	0
19	4	177.8	0
19	4	177.9	0
19	4	178	0
19	4	178.1	0
19	4	178.2	0
19	4	178.3	0
19	4	178.4	0
19	4	178.5	0
19	4	178.6	0
19	4	178.7	0
19	4	178.8	0
19	4	178.9	0
19	4	179	0
19	4	179.1	0
19	4	179.2	0
19	4	179.3	0
19	4	179.4	0
19	4	179.5	0
19	4	179.6	0
19	4	179.7	0
19	4	179.8	0
19	4	179.9	0
19	4	180	0
19	4	180.1	0
19	4	180.2	0
19	4	180.3	0
19	4	180.4	0
19	4	180.5	0
19	4	180.6	0
19	4	180.7	0
19	4	180.8	0
19	4	180.9	0
19	4	181	0
19	4	181.1	0
19	4	181.2	0
19	4	181.3	0
19	4	181.4	0
19	4	181.5	0
19	4	181.6	0
19	4	181.7	0
19	4	181.8	0
19	4	181.9	0
19	4	182	0
19	4	182.1	0
19	4	182.2	0
19	4	182.3	0
19	4	182.4	0
19	4	182.5	0
19	4	182.6	0
19	4	182.7	0
19	4	182.8	0
19	4	182.9	0
19	4	183	0
19	4	183.1	0
19	4	183.2	0
19	4	183.3	0
19	4	183.4	0
19	4	183.5	0
19	4	183.6	0
19	4	183.7	0
19	4	183.8	0
19	4	183.9	0
19	4	184	0
19	4	184.1	0
19	4	184.2	0
19	4	184.3	0
19	4	184.4	0
19	4	184.5	0
19	4	184.6	0
19	4	184.7	0
19	4	184.8	0
19	4	184.9	0
19	4	185	0
19	4	185.1	0
19	4	185.2	0
19	4	185.3	0
19	4	185.4	0
19	4	185.5	0
19	4	185.6	0
19	4	185.7	0
19	4	185.8	0
19	4	185.9	0
19	4	186	0
19	4	186.1	0
19	4	186.2	0
19	4	186.3	0
19	4	186.4	0
19	4	186.5	0
19	4	186.6	0
19	4	186.7	0
19	4	186.8	0
19	4	186.9	0
19	4	187	0
19	4	187.1	0
19	4	187.2	0
19	4	187.3	0
19	4	187.4	0
19	4	187.5	0
19	4	187.6	0
19	4	187.7	0
19	4	187.8	0
19	4	187.9	0
19	4	188	0
19	4	188.1	0
19	4	188.2	0
19	4	188.3	0
19	4	188.4	0
19	4	188.5	0
19	4	188.6	0
19	4	188.7	0
19	4	188.8	0
19	4	188.9	0
19	4	189	0
19	4	189.1	0
19	4	189.2	0
19	4	189.3	0
19	4	189.4	0
19	4	189.5	0
19	4	189.6	0
19	4	189.7	0
19	4	189.8	0
19	4	189.9	0
19	4	190	0
19	4	190.1	0
19	4	190.2	0
19	4	190.3	0
19	4	190.4	0
19	4	190.5	0
19	4	190.6	0
19	4	190.7	0
19	4	190.8	0
19	4	190.9	0
19	4	191	0
19	4	191.1	0
19	4	191.2	0
19	4	191.3	0
19	4	191.4	0
19	4	191.5	0
19	4	191.6	0
19	4	191.7	0
19	4	191.8	0
19	4	191.9	0
19	4	192	0
19	4	192.1	0
19	4	192.2	0
19	4	192.3	0
19	4	192.4	0
19	4	192.5	0
19	4	192.6	0
19	4	192.7	0
19	4	192.8	0
19	4	192.9	0
19	4	193	0
19	4	193.1	0
19	4	193.2	0
19	4	193.3	0
19	4	193.4	0
19	4	193.5	0
19	4	193.6	0
19	4	193.7	0
19	4	193.8	0
19	4	193.9	0
19	4	194	0
19	4	194.1	0
19	4	194.2	0
19	4	194.3	0
19	4	194.4	0
19	4	194.5	0
19	4	194.6	0
19	4	194.7	0
19	4	194.8	0
19	4	194.9	0
19	4	195	0
19	4	195.1	0
19	4	195.2	0
19	4	195.3	0
19	4	195.4	0
19	4	195.5	0
19	4	195.6	0
19	4	195.7	0
19	4	195.8	0
19	4	195.9	0
19	4	196	0
19	4	196.1	0
19	4	196.2	0
19	4	196.3	0
19	4	196.4	0
19	4	196.5	0
19	4	196.6	0
19	4	196.7	0
19	4	196.8	0
19	4	196.9	0
19	4	197	0
19	4	197.1	0
19	4	197.2	0
19	4	197.3	0
19	4	197.4	0
19	4	197.5	0
19	4	197.6	0
19	4	197.7	0
19	4	197.8	0
19	4	197.9	0
19	4	198	0
19	4	198.1	0
19	4	198.2	0
19	4	198.3	0
19	4	198.4	0
19	4	198.5	0
19	4	198.6	0
19	4	198.7	0
19	4	198.8	0
19	4	198.9	0
19	4	199	0
19	4	199.1	0
19	4	199.2	0
19	4	199.3	0
19	4	199.4	0
19	4	199.5	0
19	4	199.6	0
19	4	199.7	0
19	4	199.8	0
19	4	199.9	0
19	4	200	0
19	4	200.1	0
19	4	200.2	0
19	4	200.3	0
19	4	200.4	0
19	4	200.5	0
19	4	200.6	0
19	4	200.7	0
19	4	200.8	0
19	4	200.9	0
19	4	201	0
19	4	201.1	0
19	4	201.2	0
19	4	201.3	0
19	4	201.4	0
19	4	201.5	0
19	4	201.6	0
19	4	201.7	0
19	4	201.8	0
19	4	201.9	0
19	4	202	0
19	4	202.1	0
19	4	202.2	0
19	4	202.3	0
19	4	202.4	0
19	4	202.5	0
19	4	202.6	0
19	4	202.7	0
19	4	202.8	0
19	4	202.9	0
19	4	203	0
19	4	203.1	0
19	4	203.2	0
19	4	203.3	0
19	4	203.4	0
19	4	203.5	0
19	4	203.6	0
19	4	203.7	0
19	4	203.8	0
19	4	203.9	0
19	4	204	0
19	4	204.1	0
19	4	204.2	0
19	4	204.3	0
19	4	204.4	0
19	4	204.5	0
19	4	204.6	0
19	4	204.7	0
19	4	204.8	0
19	4	204.9	0
19	4	205	0
19	4	205.1	0
19	4	205.2	0
19	4	205.3	0
19	4	205.4	0
19	4	205.5	0
19	4	205.6	0
19	4	205.7	0
19	4	205.8	0
19	4	205.9	0
19	4	206	0
19	4	206.1	0
19	4	206.2	0
19	4	206.3	0
19	4	206.4	0
19	4	206.5	0
19	4	206.6	0
19	4	206.7	0
19	4	206.8	0
19	4	206.9	0
19	4	207	0
19	4	207.1	0
19	4	207.2	0
19	4	207.3	0
19	4	207.4	0
19	4	207.5	0
19	4	207.6	0
19	4	207.7	0
19	4	207.8	0
19	4	207.9	0
19	4	208	0
19	4	208.1	0
19	4	208.2	0
19	4	208.3	0
19	4	208.4	0
19	4	208.5	0
19	4	208.6	0
19	4	208.7	0
19	4	208.8	0
19	4	208.9	0
19	4	209	0
19	4	209.1	0
19	4	209.2	0
19	4	209.3	0
19	4	209.4	0
19	4	209.5	0
19	4	209.6	0
19	4	209.7	0
19	4	209.8	0
19	4	209.9	0
19	4	210	0
19	4	210.1	0
19	4	210.2	0
19	4	210.3	0
19	4	210.4	0
19	4	210.5	0
19	4	210.6	0
19	4	210.7	0
19	4	210.8	0
19	4	210.9	0
19	4	211	0
19	4	211.1	0
19	4	211.2	0
19	4	211.3	0
19	4	211.4	0
19	4	211.5	0
19	4	211.6	0
19	4	211.7	0
19	4	211.8	0
19	4	211.9	0
19	4	212	0
19	4	212.1	0
19	4	212.2	0
19	4	212.3	0
19	4	212.4	0
19	4	212.5	0
19	4	212.6	0
19	4	212.7	0
19	4	212.8	0
19	4	212.9	0
19	4	213	0
19	4	213.1	0
19	4	213.2	0
19	4	213.3	0
19	4	213.4	0
19	4	213.5	0
19	4	213.6	0
19	4	213.7	0
19	4	213.8	0
19	4	213.9	0
19	4	214	0
19	4	214.1	0
19	4	214.2	0
19	4	214.3	0
19	4	214.4	0
19	4	214.5	0
19	4	214.6	0
19	4	214.7	0
19	4	214.8	0
19	4	214.9	0
19	4	215	0
19	4	215.1	0
19	4	215.2	0
19	4	215.3	0
19	4	215.4	0
19	4	215.5	0
19	4	215.6	0
19	4	215.7	0
19	4	215.8	0
19	4	215.9	0
19	4	216	0
19	4	216.1	0
19	4	216.2	0
19	4	216.3	0
19	4	216.4	0
19	4	216.5	0
19	4	216.6	0
19	4	216.7	0
19	4	216.8	0
19	4	216.9	0
19	4	217	0
19	4	217.1	0
19	4	217.2	0
19	4	217.3	0
19	4	217.4	0
19	4	217.5	0
19	4	217.6	0
19	4	217.7	0
19	4	217.8	0
19	4	217.9	0
19	4	218	0
19	4	218.1	0
19	4	218.2	0
19	4	218.3	0
19	4	218.4	0
19	4	218.5	0
19	4	218.6	0
19	4	218.7	0
19	4	218.8	0
19	4	218.9	0
19	4	219	0
19	4	219.1	0
19	4	219.2	0
19	4	219.3	0
19	4	219.4	0
19	4	219.5	0
19	4	219.6	0
19	4	219.7	0
19	4	219.8	0
19	4	219.9	0
19	4	220	0
19	4	220.1	0
19	4	220.2	0
19	4	220.3	0
19	4	220.4	0
19	4	220.5	0
19	4	220.6	0
19	4	220.7	0
19	4	220.8	0
19	4	220.9	0
19	4	221	0
19	4	221.1	0
19	4	221.2	0
19	4	221.3	0
19	4	221.4	0
19	4	221.5	0
19	4	221.6	0
19	4	221.7	0
19	4	221.8	0
19	4	221.9	0
19	4	222	0
19	4	222.1	0
19	4	222.2	0
19	4	222.3	0
19	4	222.4	0
19	4	222.5	0
19	4	222.6	0
19	4	222.7	0
19	4	222.8	0
19	4	222.9	0
19	4	223	0
19	4	223.1	0
19	4	223.2	0
19	4	223.3	0
19	4	223.4	0
19	4	223.5	0
19	4	223.6	0
19	4	223.7	0
19	4	223.8	0
19	4	223.9	0
19	4	224	0
19	4	224.1	0
19	4	224.2	0
19	4	224.3	0
19	4	224.4	0
19	4	224.5	0
19	4	224.6	0
19	4	224.7	0
19	4	224.8	0
19	4	224.9	0
19	4	225	0
19	4	225.1	0
19	4	225.2	0
19	4	225.3	0
19	4	225.4	0
19	4	225.5	0
19	4	225.6	0
19	4	225.7	0
19	4	225.8	0
19	4	225.9	0
19	4	226	0
19	4	226.1	0
19	4	226.2	0
19	4	226.3	0
19	4	226.4	0
19	4	226.5	0
19	4	226.6	0
19	4	226.7	0
19	4	226.8	0
19	4	226.9	0
19	4	227	0
19	4	227.1	0
19	4	227.2	0
19	4	227.3	0
19	4	227.4	0
19	4	227.5	0
19	4	227.6	0
19	4	227.7	0
19	4	227.8	0
19	4	227.9	0
19	4	228	0
19	4	228.1	0
19	4	228.2	0
19	4	228.3	0
19	4	228.4	0
19	4	228.5	0
19	4	228.6	0
19	4	228.7	0
19	4	228.8	0
19	4	228.9	0
19	4	229	0
19	4	229.1	0
19	4	229.2	0
19	4	229.3	0
19	4	229.4	0
19	4	229.5	0
19	4	229.6	0
19	4	229.7	0
19	4	229.8	0
19	4	229.9	0
19	4	230	0
19	4	230.1	0
19	4	230.2	0
19	4	230.3	0
19	4	230.4	0
19	4	230.5	0
19	4	230.6	0
19	4	230.7	0
19	4	230.8	0
19	4	230.9	0
19	4	231	0
19	4	231.1	0
19	4	231.2	0
19	4	231.3	0
19	4	231.4	0
19	4	231.5	0
19	4	231.6	0
19	4	231.7	0
19	4	231.8	0
19	4	231.9	0
19	4	232	0
19	4	232.1	0
19	4	232.2	0
19	4	232.3	0
19	4	232.4	0
19	4	232.5	0
19	4	232.6	0
19	4	232.7	0
19	4	232.8	0
19	4	232.9	0
19	4	233	0
19	4	233.1	0
19	4	233.2	0
19	4	233.3	0
19	4	233.4	0
19	4	233.5	0
19	4	233.6	0
19	4	233.7	0
19	4	233.8	0
19	4	233.9	0
19	4	234	0
19	4	234.1	0
19	4	234.2	0
19	4	234.3	0
19	4	234.4	0
19	4	234.5	0
19	4	234.6	0
19	4	234.7	0
19	4	234.8	0
19	4	234.9	0
19	4	235	0
19	4	235.1	0
19	4	235.2	0
19	4	235.3	0
19	4	235.4	0
19	4	235.5	0
19	4	235.6	0
19	4	235.7	0
19	4	235.8	0
19	4	235.9	0
19	4	236	0
19	4	236.1	0
19	4	236.2	0
19	4	236.3	0
19	4	236.4	0
19	4	236.5	0
19	4	236.6	0
19	4	236.7	0
19	4	236.8	0
19	4	236.9	0
19	4	237	0
19	4	237.1	0
19	4	237.2	0
19	4	237.3	0
19	4	237.4	0
19	4	237.5	0
19	4	237.6	0
19	4	237.7	0
19	4	237.8	0
19	4	237.9	0
19	4	238	0
19	4	238.1	0
19	4	238.2	0
19	4	238.3	0
19	4	238.4	0
19	4	238.5	0
19	4	238.6	0
19	4	238.7	0
19	4	238.8	0
19	4	238.9	0
19	4	239	0
19	4	239.1	0
19	4	239.2	0
19	4	239.3	0
19	4	239.4	0
19	4	239.5	0
19	4	239.6	0
19	4	239.7	0
19	4	239.8	0
19	4	239.9	0
19	4	240	0
19	4	240.1	0
19	4	240.2	0
19	4	240.3	0
19	4	240.4	0
19	4	240.5	0
19	4	240.6	0
19	4	240.7	0
19	4	240.8	0
19	4	240.9	0
19	4	241	0
19	4	241.1	0
19	4	241.2	0
19	4	241.3	0
19	4	241.4	0
19	4	241.5	0
19	4	241.6	0
19	4	241.7	0
19	4	241.8	0
19	4	241.9	0
19	4	242	0
19	4	242.1	0
19	4	242.2	0
19	4	242.3	0
19	4	242.4	0
19	4	242.5	0
19	4	242.6	0
19	4	242.7	0
19	4	242.8	0
19	4	242.9	0
19	4	243	0
19	4	243.1	0
19	4	243.2	0
19	4	243.3	0
19	4	243.4	0
19	4	243.5	0
19	4	243.6	0
19	4	243.7	0
19	4	243.8	0
19	4	243.9	0
19	4	244	0
19	4	244.1	0
19	4	244.2	0
19	4	244.3	0
19	4	244.4	0
19	4	244.5	0
19	4	244.6	0
19	4	244.7	0
19	4	244.8	0
19	4	244.9	0
19	4	245	0
19	4	245.1	0
19	4	245.2	0
19	4	245.3	0
19	4	245.4	0
19	4	245.5	0
19	4	245.6	0
19	4	245.7	0
19	4	245.8	0
19	4	245.9	0
19	4	246	0
19	4	246.1	0
19	4	246.2	0
19	4	246.3	0
19	4	246.4	0
19	4	246.5	0
19	4	246.6	0
19	4	246.7	0
19	4	246.8	0
19	4	246.9	0
19	4	247	0
19	4	247.1	0
19	4	247.2	0
19	4	247.3	0
19	4	247.4	0
19	4	247.5	0
19	4	247.6	0
19	4	247.7	0
19	4	247.8	0
19	4	247.9	0
19	4	248	0
19	4	248.1	0
19	4	248.2	0
19	4	248.3	0
19	4	248.4	0
19	4	248.5	0
19	4	248.6	0
19	4	248.7	0
19	4	248.8	0
19	4	248.9	0
19	4	249	0
19	4	249.1	0
19	4	249.2	0
19	4	249.3	0
19	4	249.4	0
19	4	249.5	0
19	4	249.6	0
19	4	249.7	0
19	4	249.8	0
19	4	249.9	0
19	4	250	0
19	4	250.1	0
19	4	250.2	0
19	4	250.3	0
19	4	250.4	0
19	4	250.5	0
19	4	250.6	0
19	4	250.7	0
19	4	250.8	0
19	4	250.9	0
19	4	251	0
19	4	251.1	0
19	4	251.2	0
19	4	251.3	0
19	4	251.4	0
19	4	251.5	0
19	4	251.6	0
19	4	251.7	0
19	4	251.8	0
19	4	251.9	0
19	4	252	0
19	4	252.1	0
19	4	252.2	0
19	4	252.3	0
19	4	252.4	0
19	4	252.5	0
19	4	252.6	0
19	4	252.7	0
19	4	252.8	0
19	4	252.9	0
19	4	253	0
19	4	253.1	0
19	4	253.2	0
19	4	253.3	0
19	4	253.4	0
19	4	253.5	0
19	4	253.6	0
19	4	253.7	0
19	4	253.8	0
19	4	253.9	0
19	4	254	0
19	4	254.1	0
19	4	254.2	0
19	4	254.3	0
19	4	254.4	0
19	4	254.5	0
19	4	254.6	0
19	4	254.7	0
19	4	254.8	0
19	4	254.9	0
19	4	255	0
19	4	255.1	0
19	4	255.2	0
19	4	255.3	0
19	4	255.4	0
19	4	255.5	0
19	4	255.6	0
19	4	255.7	0
19	4	255.8	0
19	4	255.9	0
19	4	256	0
19	4	256.1	0
19	4	256.2	0
19	4	256.3	0
19	4	256.4	0
19	4	256.5	0
19	4	256.6	0
19	4	256.7	0
19	4	256.8	0
19	4	256.9	0
19	4	257	0
19	4	257.1	0
19	4	257.2	0
19	4	257.3	0
19	4	257.4	0
19	4	257.5	0
19	4	257.6	0
19	4	257.7	0
19	4	257.8	0
19	4	257.9	0
19	4	258	0
19	4	258.1	0
19	4	258.2	0
19	4	258.3	0
19	4	258.4	0
19	4	258.5	0
19	4	258.6	0
19	4	258.7	0
19	4	258.8	0
19	4	258.9	0
19	4	259	0
19	4	259.1	0
19	4	259.2	0
19	4	259.3	0
19	4	259.4	0
19	4	259.5	0
19	4	259.6	0
19	4	259.7	0
19	4	259.8	0
19	4	259.9	0
19	4	260	0
19	4	260.1	0
19	4	260.2	0
19	4	260.3	0
19	4	260.4	0
19	4	260.5	0
19	4	260.6	0
19	4	260.7	0
19	4	260.8	0
19	4	260.9	0
19	4	261	0
19	4	261.1	0
19	4	261.2	0
19	4	261.3	0
19	4	261.4	0
19	4	261.5	0
19	4	261.6	0
19	4	261.7	0
19	4	261.8	0
19	4	261.9	0
19	4	262	0
19	4	262.1	0
19	4	262.2	0
19	4	262.3	0
19	4	262.4	0
19	4	262.5	0
19	4	262.6	0
19	4	262.7	0
19	4	262.8	0
19	4	262.9	0
19	4	263	0
19	4	263.1	0
19	4	263.2	0
19	4	263.3	0
19	4	263.4	0
19	4	263.5	0
19	4	263.6	0
19	4	263.7	0
19	4	263.8	0
19	4	263.9	0
19	4	264	0
19	4	264.1	0
19	4	264.2	0
19	4	264.3	0
19	4	264.4	0
19	4	264.5	0
19	4	264.6	0
19	4	264.7	0
19	4	264.8	0
19	4	264.9	0
19	4	265	0
19	4	265.1	0
19	4	265.2	0
19	4	265.3	0
19	4	265.4	0
19	4	265.5	0
19	4	265.6	0
19	4	265.7	0
19	4	265.8	0
19	4	265.9	0
19	4	266	0
19	4	266.1	0
19	4	266.2	0
19	4	266.3	0
19	4	266.4	0
19	4	266.5	0
19	4	266.6	0
19	4	266.7	0
19	4	266.8	0
19	4	266.9	0
19	4	267	0
19	4	267.1	0
19	4	267.2	0
19	4	267.3	0
19	4	267.4	0
19	4	267.5	0
19	4	267.6	0
19	4	267.7	0
19	4	267.8	0
19	4	267.9	0
19	4	268	0
19	4	268.1	0
19	4	268.2	0
19	4	268.3	0
19	4	268.4	0
19	4	268.5	0
19	4	268.6	0
19	4	268.7	0
19	4	268.8	0
19	4	268.9	0
19	4	269	0
19	4	269.1	0
19	4	269.2	0
19	4	269.3	0
19	4	269.4	0
19	4	269.5	0
19	4	269.6	0
19	4	269.7	0
19	4	269.8	0
19	4	269.9	0
19	4	270	0
19	4	270.1	0
19	4	270.2	0
19	4	270.3	0
19	4	270.4	0
19	4	270.5	0
19	4	270.6	0
19	4	270.7	0
19	4	270.8	0
19	4	270.9	0
19	4	271	0
19	4	271.1	0
19	4	271.2	0
19	4	271.3	0
19	4	271.4	0
19	4	271.5	0
19	4	271.6	0
19	4	271.7	0
19	4	271.8	0
19	4	271.9	0
19	4	272	0
19	4	272.1	0
19	4	272.2	0
19	4	272.3	0
19	4	272.4	0
19	4	272.5	0
19	4	272.6	0
19	4	272.7	0
19	4	272.8	0
19	4	272.9	0
19	4	273	0
19	4	273.1	0
19	4	273.2	0
19	4	273.3	0
19	4	273.4	0
19	4	273.5	0
19	4	273.6	0
19	4	273.7	0
19	4	273.8	0
19	4	273.9	0
19	4	274	0
19	4	274.1	0
19	4	274.2	0
19	4	274.3	0
19	4	274.4	0
19	4	274.5	0
19	4	274.6	0
19	4	274.7	0
19	4	274.8	0
19	4	274.9	0
19	4	275	0
19	4	275.1	0
19	4	275.2	0
19	4	275.3	0
19	4	275.4	0
19	4	275.5	0
19	4	275.6	0
19	4	275.7	0
19	4	275.8	0
19	4	275.9	0
19	4	276	0
19	4	276.1	0
19	4	276.2	0
19	4	276.3	0
19	4	276.4	0
19	4	276.5	0
19	4	276.6	0
19	4	276.7	0
19	4	276.8	0
19	4	276.9	0
19	4	277	0
19	4	277.1	0
19	4	277.2	0
19	4	277.3	0
19	4	277.4	0
19	4	277.5	0
19	4	277.6	0
19	4	277.7	0
19	4	277.8	0
19	4	277.9	0
19	4	278	0
19	4	278.1	0
19	4	278.2	0
19	4	278.3	0
19	4	278.4	0
19	4	278.5	0
19	4	278.6	0
19	4	278.7	0
19	4	278.8	0
19	4	278.9	0
19	4	279	0
19	4	279.1	0
19	4	279.2	0
19	4	279.3	0
19	4	279.4	0
19	4	279.5	0
19	4	279.6	0
19	4	279.7	0
19	4	279.8	0
19	4	279.9	0
19	4	280	0
19	4	280.1	0
19	4	280.2	0
19	4	280.3	0
19	4	280.4	0
19	4	280.5	0
19	4	280.6	0
19	4	280.7	0
19	4	280.8	0
19	4	280.9	0
19	4	281	0
19	4	281.1	0
19	4	281.2	0
19	4	281.3	0
19	4	281.4	0
19	4	281.5	0
19	4	281.6	0
19	4	281.7	0
19	4	281.8	0
19	4	281.9	0
19	4	282	0
19	4	282.1	0
19	4	282.2	0
19	4	282.3	0
19	4	282.4	0
19	4	282.5	0
19	4	282.6	0
19	4	282.7	0
19	4	282.8	0
19	4	282.9	0
19	4	283	0
19	4	283.1	0
19	4	283.2	0
19	4	283.3	0
19	4	283.4	0
19	4	283.5	0
19	4	283.6	0
19	4	283.7	0
19	4	283.8	0
19	4	283.9	0
19	4	284	0
19	4	284.1	0
19	4	284.2	0
19	4	284.3	0
19	4	284.4	0
19	4	284.5	0
19	4	284.6	0
19	4	284.7	0
19	4	284.8	0
19	4	284.9	0
19	4	285	0
19	4	285.1	0
19	4	285.2	0
19	4	285.3	0
19	4	285.4	0
19	4	285.5	0
19	4	285.6	0
19	4	285.7	0
19	4	285.8	0
19	4	285.9	0
19	4	286	0
19	4	286.1	0
19	4	286.2	0
19	4	286.3	0
19	4	286.4	0
19	4	286.5	0
19	4	286.6	0
19	4	286.7	0
19	4	286.8	0
19	4	286.9	0
19	4	287	0
19	4	287.1	0
19	4	287.2	0
19	4	287.3	0
19	4	287.4	0
19	4	287.5	0
19	4	287.6	0
19	4	287.7	0
19	4	287.8	0
19	4	287.9	0
19	4	288	0
19	4	288.1	0
19	4	288.2	0
19	4	288.3	0
19	4	288.4	0
19	4	288.5	0
19	4	288.6	0
19	4	288.7	0
19	4	288.8	0
19	4	288.9	0
19	4	289	0
19	4	289.1	0
19	4	289.2	0
19	4	289.3	0
19	4	289.4	0
19	4	289.5	0
19	4	289.6	0
19	4	289.7	0
19	4	289.8	0
19	4	289.9	0
19	4	290	0
19	4	290.1	0
19	4	290.2	0
19	4	290.3	0
19	4	290.4	0
19	4	290.5	0
19	4	290.6	0
19	4	290.7	0
19	4	290.8	0
19	4	290.9	0
19	4	291	0
19	4	291.1	0
19	4	291.2	0
19	4	291.3	0
19	4	291.4	0
19	4	291.5	0
19	4	291.6	0
19	4	291.7	0
19	4	291.8	0
19	4	291.9	0
19	4	292	0
19	4	292.1	0
19	4	292.2	0
19	4	292.3	0
19	4	292.4	0
19	4	292.5	0
19	4	292.6	0
19	4	292.7	0
19	4	292.8	0
19	4	292.9	0
19	4	293	0
19	4	293.1	0
19	4	293.2	0
19	4	293.3	0
19	4	293.4	0
19	4	293.5	0
19	4	293.6	0
19	4	293.7	0
19	4	293.8	0
19	4	293.9	0
19	4	294	0
19	4	294.1	0
19	4	294.2	0
19	4	294.3	0
19	4	294.4	0
19	4	294.5	0
19	4	294.6	0
19	4	294.7	0
19	4	294.8	0
19	4	294.9	0
19	4	295	0
19	4	295.1	0
19	4	295.2	0
19	4	295.3	0
19	4	295.4	0
19	4	295.5	0
19	4	295.6	0
19	4	295.7	0
19	4	295.8	0
19	4	295.9	0
19	4	296	0
19	4	296.1	0
19	4	296.2	0
19	4	296.3	0
19	4	296.4	0
19	4	296.5	0
19	4	296.6	0
19	4	296.7	0
19	4	296.8	0
19	4	296.9	0
19	4	297	0
19	4	297.1	0
19	4	297.2	0
19	4	297.3	0
19	4	297.4	0
19	4	297.5	0
19	4	297.6	0
19	4	297.7	0
19	4	297.8	0
19	4	297.9	0
19	4	298	0
19	4	298.1	0
19	4	298.2	0
19	4	298.3	0
19	4	298.4	0
19	4	298.5	0
19	4	298.6	0
19	4	298.7	0
19	4	298.8	0
19	4	298.9	0
19	4	299	0
19	4	299.1	0
19	4	299.2	0
19	4	299.3	0
19	4	299.4	0
19	4	299.5	0
19	4	299.6	0
19	4	299.7	0
19	4	299.8	0
19	4	299.9	0
19	4	300	0
19	4	300.1	0
19	4	300.2	0
19	4	300.3	0
19	4	300.4	0
19	4	300.5	0
19	4	300.6	0
19	4	300.7	0
19	4	300.8	0
19	4	300.9	0
19	4	301	0
19	4	301.1	0
19	4	301.2	0
19	4	301.3	0
19	4	301.4	0
19	4	301.5	0
19	4	301.6	0
19	4	301.7	0
19	4	301.8	0
19	4	301.9	0
19	4	302	0
19	4	302.1	0
19	4	302.2	0
19	4	302.3	0
19	4	302.4	0
19	4	302.5	0
19	4	302.6	0
19	4	302.7	0
19	4	302.8	0
19	4	302.9	0
19	4	303	0
19	4	303.1	0
19	4	303.2	0
19	4	303.3	0
19	4	303.4	0
19	4	303.5	0
19	4	303.6	0
19	4	303.7	0
19	4	303.8	0
19	4	303.9	0
19	4	304	0
19	4	304.1	0
19	4	304.2	0
19	4	304.3	0
19	4	304.4	0
19	4	304.5	0
19	4	304.6	0
19	4	304.7	0
19	4	304.8	0
19	4	304.9	0
19	4	305	0
19	4	305.1	0
19	4	305.2	0
19	4	305.3	0
19	4	305.4	0
19	4	305.5	0
19	4	305.6	0
19	4	305.7	0
19	4	305.8	0
19	4	305.9	0
19	4	306	0
19	4	306.1	0
19	4	306.2	0
19	4	306.3	0
19	4	306.4	0
19	4	306.5	0
19	4	306.6	0
19	4	306.7	0
19	4	306.8	0
19	4	306.9	0
19	4	307	0
19	4	307.1	0
19	4	307.2	0
19	4	307.3	0
19	4	307.4	0
19	4	307.5	0
19	4	307.6	0
19	4	307.7	0
19	4	307.8	0
19	4	307.9	0
19	4	308	0
19	4	308.1	0
19	4	308.2	0
19	4	308.3	0
19	4	308.4	0
19	4	308.5	0
19	4	308.6	0
19	4	308.7	0
19	4	308.8	0
19	4	308.9	0
19	4	309	0
19	4	309.1	0
19	4	309.2	0
19	4	309.3	0
19	4	309.4	0
19	4	309.5	0
19	4	309.6	0
19	4	309.7	0
19	4	309.8	0
19	4	309.9	0
19	4	310	0
19	4	310.1	0
19	4	310.2	0
19	4	310.3	0
19	4	310.4	0
19	4	310.5	0
19	4	310.6	0
19	4	310.7	0
19	4	310.8	0
19	4	310.9	0
19	4	311	0
19	4	311.1	0
19	4	311.2	0
19	4	311.3	0
19	4	311.4	0
19	4	311.5	0
19	4	311.6	0
19	4	311.7	0
19	4	311.8	0
19	4	311.9	0
19	4	312	0
19	4	312.1	0
19	4	312.2	0
19	4	312.3	0
19	4	312.4	0
19	4	312.5	0
19	4	312.6	0
19	4	312.7	0
19	4	312.8	0
19	4	312.9	0
19	4	313	0
19	4	313.1	0
19	4	313.2	0
19	4	313.3	0
19	4	313.4	0
19	4	313.5	0
19	4	313.6	0
19	4	313.7	0
19	4	313.8	0
19	4	313.9	0
19	4	314	0
19	4	314.1	0
19	4	314.2	0
19	4	314.3	0
19	4	314.4	0
19	4	314.5	0
19	4	314.6	0
19	4	314.7	0
19	4	314.8	0
19	4	314.9	0
19	4	315	0
19	4	315.1	0
19	4	315.2	0
19	4	315.3	0
19	4	315.4	0
19	4	315.5	0
19	4	315.6	0
19	4	315.7	0
19	4	315.8	0
19	4	315.9	0
19	4	316	0
19	4	316.1	0
19	4	316.2	0
19	4	316.3	0
19	4	316.4	0
19	4	316.5	0
19	4	316.6	0
19	4	316.7	0
19	4	316.8	0
19	4	316.9	0
19	4	317	0
19	4	317.1	0
19	4	317.2	0
19	4	317.3	0
19	4	317.4	0
19	4	317.5	0
19	4	317.6	0
19	4	317.7	0
19	4	317.8	0
19	4	317.9	0
19	4	318	0
19	4	318.1	0
19	4	318.2	0
19	4	318.3	0
19	4	318.4	0
19	4	318.5	0
19	4	318.6	0
19	4	318.7	0
19	4	318.8	0
19	4	318.9	0
19	4	319	0
19	4	319.1	0
19	4	319.2	0
19	4	319.3	0
19	4	319.4	0
19	4	319.5	0
19	4	319.6	0
19	4	319.7	0
19	4	319.8	0
19	4	319.9	0
19	4	320	0
19	4	320.1	0
19	4	320.2	0
19	4	320.3	0
19	4	320.4	0
19	4	320.5	0
19	4	320.6	0
19	4	320.7	0
19	4	320.8	0
19	4	320.9	0
19	4	321	0
19	4	321.1	0
19	4	321.2	0
19	4	321.3	0
19	4	321.4	0
19	4	321.5	0
19	4	321.6	0
19	4	321.7	0
19	4	321.8	0
19	4	321.9	0
19	4	322	0
19	4	322.1	0
19	4	322.2	0
19	4	322.3	0
19	4	322.4	0
19	4	322.5	0
19	4	322.6	0
19	4	322.7	0
19	4	322.8	0
19	4	322.9	0
19	4	323	0
19	4	323.1	0
19	4	323.2	0
19	4	323.3	0
19	4	323.4	0
19	4	323.5	0
19	4	323.6	0
19	4	323.7	0
19	4	323.8	0
19	4	323.9	0
19	4	324	0
19	4	324.1	0
19	4	324.2	0
19	4	324.3	0
19	4	324.4	0
19	4	324.5	0
19	4	324.6	0
19	4	324.7	0
19	4	324.8	0
19	4	324.9	0
19	4	325	0
19	4	325.1	0
19	4	325.2	0
19	4	325.3	0
19	4	325.4	0
19	4	325.5	0
19	4	325.6	0
19	4	325.7	0
19	4	325.8	0
19	4	325.9	0
19	4	326	0
19	4	326.1	0
19	4	326.2	0
19	4	326.3	0
19	4	326.4	0
19	4	326.5	0
19	4	326.6	0
19	4	326.7	0
19	4	326.8	0
19	4	326.9	0
19	4	327	0
19	4	327.1	0
19	4	327.2	0
19	4	327.3	0
19	4	327.4	0
19	4	327.5	0
19	4	327.6	0
19	4	327.7	0
19	4	327.8	0
19	4	327.9	0
19	4	328	0
19	4	328.1	0
19	4	328.2	0
19	4	328.3	0
19	4	328.4	0
19	4	328.5	0
19	4	328.6	0
19	4	328.7	0
19	4	328.8	0
19	4	328.9	0
19	4	329	0
19	4	329.1	0
19	4	329.2	0
19	4	329.3	0
19	4	329.4	0
19	4	329.5	0
19	4	329.6	0
19	4	329.7	0
19	4	329.8	0
19	4	329.9	0
19	4	330	0
19	4	330.1	0
19	4	330.2	0
19	4	330.3	0
19	4	330.4	0
19	4	330.5	0
19	4	330.6	0
19	4	330.7	0
19	4	330.8	0
19	4	330.9	0
19	4	331	0
19	4	331.1	0
19	4	331.2	0
19	4	331.3	0
19	4	331.4	0
19	4	331.5	0
19	4	331.6	0
19	4	331.7	0
19	4	331.8	0
19	4	331.9	0
19	4	332	0
19	4	332.1	0
19	4	332.2	0
19	4	332.3	0
19	4	332.4	0
19	4	332.5	0
19	4	332.6	0
19	4	332.7	0
19	4	332.8	0
19	4	332.9	0
19	4	333	0
19	4	333.1	0
19	4	333.2	0
19	4	333.3	0
19	4	333.4	0
19	4	333.5	0
19	4	333.6	0
19	4	333.7	0
19	4	333.8	0
19	4	333.9	0
19	4	334	0
19	4	334.1	0
19	4	334.2	0
19	4	334.3	0
19	4	334.4	0
19	4	334.5	0
19	4	334.6	0
19	4	334.7	0
19	4	334.8	0
19	4	334.9	0
19	4	335	0
19	4	335.1	0
19	4	335.2	0
19	4	335.3	0
19	4	335.4	0
19	4	335.5	0
19	4	335.6	0
19	4	335.7	0
19	4	335.8	0
19	4	335.9	0
19	4	336	0
19	4	336.1	0
19	4	336.2	0
19	4	336.3	0
19	4	336.4	0
19	4	336.5	0
19	4	336.6	0
19	4	336.7	0
19	4	336.8	0
19	4	336.9	0
19	4	337	0
19	4	337.1	0
19	4	337.2	0
19	4	337.3	0
19	4	337.4	0
19	4	337.5	0
19	4	337.6	0
19	4	337.7	0
19	4	337.8	0
19	4	337.9	0
19	4	338	0
19	4	338.1	0
19	4	338.2	0
19	4	338.3	0
19	4	338.4	0
19	4	338.5	0
19	4	338.6	0
19	4	338.7	0
19	4	338.8	0
19	4	338.9	0
19	4	339	0
19	4	339.1	0
19	4	339.2	0
19	4	339.3	0
19	4	339.4	0
19	4	339.5	0
19	4	339.6	0
19	4	339.7	0
19	4	339.8	0
19	4	339.9	0
19	4	340	0
19	4	340.1	0
19	4	340.2	0
19	4	340.3	0
19	4	340.4	0
19	4	340.5	0
19	4	340.6	0
19	4	340.7	0
19	4	340.8	0
19	4	340.9	0
19	4	341	0
19	4	341.1	0
19	4	341.2	0
19	4	341.3	0
19	4	341.4	0
19	4	341.5	0
19	4	341.6	0
19	4	341.7	0
19	4	341.8	0
19	4	341.9	0
19	4	342	0
19	4	342.1	0
19	4	342.2	0
19	4	342.3	0
19	4	342.4	0
19	4	342.5	0
19	4	342.6	0
19	4	342.7	0
19	4	342.8	0
19	4	342.9	0
19	4	343	0
19	4	343.1	0
19	4	343.2	0
19	4	343.3	0
19	4	343.4	0
19	4	343.5	0
19	4	343.6	0
19	4	343.7	0
19	4	343.8	0
19	4	343.9	0
19	4	344	0
19	4	344.1	0
19	4	344.2	0
19	4	344.3	0
19	4	344.4	0
19	4	344.5	0
19	4	344.6	0
19	4	344.7	0
19	4	344.8	0
19	4	344.9	0
19	4	345	0
19	4	345.1	0
19	4	345.2	0
19	4	345.3	0
19	4	345.4	0
19	4	345.5	0
19	4	345.6	0
19	4	345.7	0
19	4	345.8	0
19	4	345.9	0
19	4	346	0
19	4	346.1	0
19	4	346.2	0
19	4	346.3	0
19	4	346.4	0
19	4	346.5	0
19	4	346.6	0
19	4	346.7	0
19	4	346.8	0
19	4	346.9	0
19	4	347	0
19	4	347.1	0
19	4	347.2	0
19	4	347.3	0
19	4	347.4	0
19	4	347.5	0
19	4	347.6	0
19	4	347.7	0
19	4	347.8	0
19	4	347.9	0
19	4	348	0
19	4	348.1	0
19	4	348.2	0
19	4	348.3	0
19	4	348.4	0
19	4	348.5	0
19	4	348.6	0
19	4	348.7	0
19	4	348.8	0
19	4	348.9	0
19	4	349	0
19	4	349.1	0
19	4	349.2	0
19	4	349.3	0
19	4	349.4	0
19	4	349.5	0
19	4	349.6	0
19	4	349.7	0
19	4	349.8	0
19	4	349.9	0
19	4	350	0
19	4	350.1	0
19	4	350.2	0
19	4	350.3	0
19	4	350.4	0
19	4	350.5	0
19	4	350.6	0
19	4	350.7	0
19	4	350.8	0
19	4	350.9	0
19	4	351	0
19	4	351.1	0
19	4	351.2	0
19	4	351.3	0
19	4	351.4	0
19	4	351.5	0
19	4	351.6	0
19	4	351.7	0
19	4	351.8	0
19	4	351.9	0
19	4	352	0
19	4	352.1	0
19	4	352.2	0
19	4	352.3	0
19	4	352.4	0
19	4	352.5	0
19	4	352.6	0
19	4	352.7	0
19	4	352.8	0
19	4	352.9	0
19	4	353	0
19	4	353.1	0
19	4	353.2	0
19	4	353.3	0
19	4	353.4	0
19	4	353.5	0
19	4	353.6	0
19	4	353.7	0
19	4	353.8	0
19	4	353.9	0
19	4	354	0
19	4	354.1	0
19	4	354.2	0
19	4	354.3	0
19	4	354.4	0
19	4	354.5	0
19	4	354.6	0
19	4	354.7	0
19	4	354.8	0
19	4	354.9	0
19	4	355	0
19	4	355.1	0
19	4	355.2	0
19	4	355.3	0
19	4	355.4	0
19	4	355.5	0
19	4	355.6	0
19	4	355.7	0
19	4	355.8	0
19	4	355.9	0
19	4	356	0
19	4	356.1	0
19	4	356.2	0
19	4	356.3	0
19	4	356.4	0
19	4	356.5	0
19	4	356.6	0
19	4	356.7	0
19	4	356.8	0
19	4	356.9	0
19	4	357	0
19	4	357.1	0
19	4	357.2	0
19	4	357.3	0
19	4	357.4	0
19	4	357.5	0
19	4	357.6	0
19	4	357.7	0
19	4	357.8	0
19	4	357.9	0
19	4	358	0
19	4	358.1	0
19	4	358.2	0
19	4	358.3	0
19	4	358.4	0
19	4	358.5	0
19	4	358.6	0
19	4	358.7	0
19	4	358.8	0
19	4	358.9	0
19	4	359	0
19	4	359.1	0
19	4	359.2	0
19	4	359.3	0
19	4	359.4	0
19	4	359.5	0
19	4	359.6	0
19	4	359.7	0
19	4	359.8	0
19	4	359.9	0
19	4	360	0
19	4	360.1	0
19	4	360.2	0
19	4	360.3	0
19	4	360.4	0
19	4	360.5	0
19	4	360.6	0
19	4	360.7	0
19	4	360.8	0
19	4	360.9	0
19	4	361	0
19	4	361.1	0
19	4	361.2	0
19	4	361.3	0
19	4	361.4	0
19	4	361.5	0
19	4	361.6	0
19	4	361.7	0
19	4	361.8	0
19	4	361.9	0
19	4	362	0
19	4	362.1	0
19	4	362.2	0
19	4	362.3	0
19	4	362.4	0
19	4	362.5	0
19	4	362.6	0
19	4	362.7	0
19	4	362.8	0
19	4	362.9	0
19	4	363	0
19	4	363.1	0
19	4	363.2	0
19	4	363.3	0
19	4	363.4	0
19	4	363.5	0
19	4	363.6	0
19	4	363.7	0
19	4	363.8	0
19	4	363.9	0
19	4	364	0
19	4	364.1	0
19	4	364.2	0
19	4	364.3	0
19	4	364.4	0
19	4	364.5	0
19	4	364.6	0
19	4	364.7	0
19	4	364.8	0
19	4	364.9	0
19	4	365	0
19	4	365.1	0
19	4	365.2	0
19	4	365.3	0
19	4	365.4	0
19	4	365.5	0
19	4	365.6	0
19	4	365.7	0
19	4	365.8	0
19	4	365.9	0
19	4	366	0
19	4	366.1	0
19	4	366.2	0
19	4	366.3	0
19	4	366.4	0
19	4	366.5	0
19	4	366.6	0
19	4	366.7	0
19	4	366.8	0
19	4	366.9	0
19	4	367	0
19	4	367.1	0
19	4	367.2	0
19	4	367.3	0
19	4	367.4	0
19	4	367.5	0
19	4	367.6	0
19	4	367.7	0
19	4	367.8	0
19	4	367.9	0
19	4	368	0
19	4	368.1	0
19	4	368.2	0
19	4	368.3	0
19	4	368.4	0
19	4	368.5	0
19	4	368.6	0
19	4	368.7	0
19	4	368.8	0
19	4	368.9	0
19	4	369	0
19	4	369.1	0
19	4	369.2	0
19	4	369.3	0
19	4	369.4	0
19	4	369.5	0
19	4	369.6	0
19	4	369.7	0
19	4	369.8	0
19	4	369.9	0
19	4	370	0
19	4	370.1	0
19	4	370.2	0
19	4	370.3	0
19	4	370.4	0
19	4	370.5	0
19	4	370.6	0
19	4	370.7	0
19	4	370.8	0
19	4	370.9	0
19	4	371	0
19	4	371.1	0
19	4	371.2	0
19	4	371.3	0
19	4	371.4	0
19	4	371.5	0
19	4	371.6	0
19	4	371.7	0
19	4	371.8	0
19	4	371.9	0
19	4	372	0
19	4	372.1	0
19	4	372.2	0
19	4	372.3	0
19	4	372.4	0
19	4	372.5	0
19	4	372.6	0
19	4	372.7	0
19	4	372.8	0
19	4	372.9	0
19	4	373	0
19	4	373.1	0
19	4	373.2	0
19	4	373.3	0
19	4	373.4	0
19	4	373.5	0
19	4	373.6	0
19	4	373.7	0
19	4	373.8	0
19	4	373.9	0
19	4	374	0
19	4	374.1	0
19	4	374.2	0
19	4	374.3	0
19	4	374.4	0
19	4	374.5	0
19	4	374.6	0
19	4	374.7	0
19	4	374.8	0
19	4	374.9	0
19	4	375	0
19	4	375.1	0
19	4	375.2	0
19	4	375.3	0
19	4	375.4	0
19	4	375.5	0
19	4	375.6	0
19	4	375.7	0
19	4	375.8	0
19	4	375.9	0
19	4	376	0
19	4	376.1	0
19	4	376.2	0
19	4	376.3	0
19	4	376.4	0
19	4	376.5	0
19	4	376.6	0
19	4	376.7	0
19	4	376.8	0
19	4	376.9	0
19	4	377	0
19	4	377.1	0
19	4	377.2	0
19	4	377.3	0
19	4	377.4	0
19	4	377.5	0
19	4	377.6	0
19	4	377.7	0
19	4	377.8	0
19	4	377.9	0
19	4	378	0
19	4	378.1	0
19	4	378.2	0
19	4	378.3	0
19	4	378.4	0
19	4	378.5	0
19	4	378.6	0
19	4	378.7	0
19	4	378.8	0
19	4	378.9	0
19	4	379	0
19	4	379.1	0
19	4	379.2	0
19	4	379.3	0
19	4	379.4	0
19	4	379.5	0
19	4	379.6	0
19	4	379.7	0
19	4	379.8	0
19	4	379.9	0
19	4	380	0
19	4	380.1	0
19	4	380.2	0
19	4	380.3	0
19	4	380.4	0
19	4	380.5	0
19	4	380.6	0
19	4	380.7	0
19	4	380.8	0
19	4	380.9	0
19	4	381	0
19	4	381.1	0
19	4	381.2	0
19	4	381.3	0
19	4	381.4	0
19	4	381.5	0
19	4	381.6	0
19	4	381.7	0
19	4	381.8	0
19	4	381.9	0
19	4	382	0
19	4	382.1	0
19	4	382.2	0
19	4	382.3	0
19	4	382.4	0
19	4	382.5	0
19	4	382.6	0
19	4	382.7	0
19	4	382.8	0
19	4	382.9	0
19	4	383	0
19	4	383.1	0
19	4	383.2	0
19	4	383.3	0
19	4	383.4	0
19	4	383.5	0
19	4	383.6	0
19	4	383.7	0
19	4	383.8	0
19	4	383.9	0
19	4	384	0
19	4	384.1	0
19	4	384.2	0
19	4	384.3	0
19	4	384.4	0
19	4	384.5	0
19	4	384.6	0
19	4	384.7	0
19	4	384.8	0
19	4	384.9	0
19	4	385	0
19	4	385.1	0
19	4	385.2	0
19	4	385.3	0
19	4	385.4	0
19	4	385.5	0
19	4	385.6	0
19	4	385.7	0
19	4	385.8	0
19	4	385.9	0
19	4	386	0
19	4	386.1	0
19	4	386.2	0
19	4	386.3	0
19	4	386.4	0
19	4	386.5	0
19	4	386.6	0
19	4	386.7	0
19	4	386.8	0
19	4	386.9	0
19	4	387	0
19	4	387.1	0
19	4	387.2	0
19	4	387.3	0
19	4	387.4	0
19	4	387.5	0
19	4	387.6	0
19	4	387.7	0
19	4	387.8	0
19	4	387.9	0
19	4	388	0
19	4	388.1	0
19	4	388.2	0
19	4	388.3	0
19	4	388.4	0
19	4	388.5	0
19	4	388.6	0
19	4	388.7	0
19	4	388.8	0
19	4	388.9	0
19	4	389	0
19	4	389.1	0
19	4	389.2	0
19	4	389.3	0
19	4	389.4	0
19	4	389.5	0
19	4	389.6	0
19	4	389.7	0
19	4	389.8	0
19	4	389.9	0
19	4	390	0
19	4	390.1	0
19	4	390.2	0
19	4	390.3	0
19	4	390.4	0
19	4	390.5	0
19	4	390.6	0
19	4	390.7	0
19	4	390.8	0
19	4	390.9	0
19	4	391	0
19	4	391.1	0
19	4	391.2	0
19	4	391.3	0
19	4	391.4	0
19	4	391.5	0
19	4	391.6	0
19	4	391.7	0
19	4	391.8	0
19	4	391.9	0
19	4	392	0
19	4	392.1	0
19	4	392.2	0
19	4	392.3	0
19	4	392.4	0
19	4	392.5	0
19	4	392.6	0
19	4	392.7	0
19	4	392.8	0
19	4	392.9	0
19	4	393	0
19	4	393.1	0
19	4	393.2	0
19	4	393.3	0
19	4	393.4	0
19	4	393.5	0
19	4	393.6	0
19	4	393.7	0
19	4	393.8	0
19	4	393.9	0
19	4	394	0
19	4	394.1	0
19	4	394.2	0
19	4	394.3	0
19	4	394.4	0
19	4	394.5	0
19	4	394.6	0
19	4	394.7	0
19	4	394.8	0
19	4	394.9	0
19	4	395	0
19	4	395.1	0
19	4	395.2	0
19	4	395.3	0
19	4	395.4	0
19	4	395.5	0
19	4	395.6	0
19	4	395.7	0
19	4	395.8	0
19	4	395.9	0
19	4	396	0
19	4	396.1	0
19	4	396.2	0
19	4	396.3	0
19	4	396.4	0
19	4	396.5	0
19	4	396.6	0
19	4	396.7	0
19	4	396.8	0
19	4	396.9	0
19	4	397	0
19	4	397.1	0
19	4	397.2	0
19	4	397.3	0
19	4	397.4	0
19	4	397.5	0
19	4	397.6	0
19	4	397.7	0
19	4	397.8	0
19	4	397.9	0
19	4	398	0
19	4	398.1	0
19	4	398.2	0
19	4	398.3	0
19	4	398.4	0
19	4	398.5	0
19	4	398.6	0
19	4	398.7	0
19	4	398.8	0
19	4	398.9	0
19	4	399	0
19	4	399.1	0
19	4	399.2	0
19	4	399.3	0
19	4	399.4	0
19	4	399.5	0
19	4	399.6	0
19	4	399.7	0
19	4	399.8	0
19	4	399.9	0
19	4	400	0
19	4	400.1	0
19	4	400.2	0
19	4	400.3	0
19	4	400.4	0
19	4	400.5	0
19	4	400.6	0
19	4	400.7	0
19	4	400.8	0
19	4	400.9	0
19	4	401	0
19	4	401.1	0
19	4	401.2	0
19	4	401.3	0
19	4	401.4	0
19	4	401.5	0
19	4	401.6	0
19	4	401.7	0
19	4	401.8	0
19	4	401.9	0
19	4	402	0
19	4	402.1	0
19	4	402.2	0
19	4	402.3	0
19	4	402.4	0
19	4	402.5	0
19	4	402.6	0
19	4	402.7	0
19	4	402.8	0
19	4	402.9	0
19	4	403	0
19	4	403.1	0
19	4	403.2	0
19	4	403.3	0
19	4	403.4	0
19	4	403.5	0
19	4	403.6	0
19	4	403.7	0
19	4	403.8	0
19	4	403.9	0
19	4	404	0
19	4	404.1	0
19	4	404.2	0
19	4	404.3	0
19	4	404.4	0
19	4	404.5	0
19	4	404.6	0
19	4	404.7	0
19	4	404.8	0
19	4	404.9	0
19	4	405	0
19	4	405.1	0
19	4	405.2	0
19	4	405.3	0
19	4	405.4	0
19	4	405.5	0
19	4	405.6	0
19	4	405.7	0
19	4	405.8	0
19	4	405.9	0
19	4	406	0
19	4	406.1	0
19	4	406.2	0
19	4	406.3	0
19	4	406.4	0
19	4	406.5	0
19	4	406.6	0
19	4	406.7	0
19	4	406.8	0
19	4	406.9	0
19	4	407	0
19	4	407.1	0
19	4	407.2	0
19	4	407.3	0
19	4	407.4	0
19	4	407.5	0
19	4	407.6	0
19	4	407.7	0
19	4	407.8	0
19	4	407.9	0
19	4	408	0
19	4	408.1	0
19	4	408.2	0
19	4	408.3	0
19	4	408.4	0
19	4	408.5	0
19	4	408.6	0
19	4	408.7	0
19	4	408.8	0
19	4	408.9	0
19	4	409	0
19	4	409.1	0
19	4	409.2	0
19	4	409.3	0
19	4	409.4	0
19	4	409.5	0
19	4	409.6	0
19	4	409.7	0
19	4	409.8	0
19	4	409.9	0
19	4	410	0
19	4	410.1	0
19	4	410.2	0
19	4	410.3	0
19	4	410.4	0
19	4	410.5	0
19	4	410.6	0
19	4	410.7	0
19	4	410.8	0
19	4	410.9	0
19	4	411	0
19	4	411.1	0
19	4	411.2	0
19	4	411.3	0
19	4	411.4	0
19	4	411.5	0
19	4	411.6	0
19	4	411.7	0
19	4	411.8	0
19	4	411.9	0
19	4	412	0
19	4	412.1	0
19	4	412.2	0
19	4	412.3	0
19	4	412.4	0
19	4	412.5	0
19	4	412.6	0
19	4	412.7	0
19	4	412.8	0
19	4	412.9	0
19	4	413	0
19	4	413.1	0
19	4	413.2	0
19	4	413.3	0
19	4	413.4	0
19	4	413.5	0
19	4	413.6	0
19	4	413.7	0
19	4	413.8	0
19	4	413.9	0
19	4	414	0
19	4	414.1	0
19	4	414.2	0
19	4	414.3	0
19	4	414.4	0
19	4	414.5	0
19	4	414.6	0
19	4	414.7	0
19	4	414.8	0
19	4	414.9	0
19	4	415	0
19	4	415.1	0
19	4	415.2	0
19	4	415.3	0
19	4	415.4	0
19	4	415.5	0
19	4	415.6	0
19	4	415.7	0
19	4	415.8	0
19	4	415.9	0
19	4	416	0
19	4	416.1	0
19	4	416.2	0
19	4	416.3	0
19	4	416.4	0
19	4	416.5	0
19	4	416.6	0
19	4	416.7	0
19	4	416.8	0
19	4	416.9	0
19	4	417	0
19	4	417.1	0
19	4	417.2	0
19	4	417.3	0
19	4	417.4	0
19	4	417.5	0
19	4	417.6	0
19	4	417.7	0
19	4	417.8	0
19	4	417.9	0
19	4	418	0
19	4	418.1	0
19	4	418.2	0
19	4	418.3	0
19	4	418.4	0
19	4	418.5	0
19	4	418.6	0
19	4	418.7	0
19	4	418.8	0
19	4	418.9	0
19	4	419	0
19	4	419.1	0
19	4	419.2	0
19	4	419.3	0
19	4	419.4	0
19	4	419.5	0
19	4	419.6	0
19	4	419.7	0
19	4	419.8	0
19	4	419.9	0
19	4	420	0
19	4	420.1	0
19	4	420.2	0
19	4	420.3	0
19	4	420.4	0
19	4	420.5	0
19	4	420.6	0
19	4	420.7	0
19	4	420.8	0
19	4	420.9	0
19	4	421	0
19	4	421.1	0
19	4	421.2	0
19	4	421.3	0
19	4	421.4	0
19	4	421.5	0
19	4	421.6	0
19	4	421.7	0
19	4	421.8	0
19	4	421.9	0
19	4	422	0
19	4	422.1	0
19	4	422.2	0
19	4	422.3	0
19	4	422.4	0
19	4	422.5	0
19	4	422.6	0
19	4	422.7	0
19	4	422.8	0
19	4	422.9	0
19	4	423	0
19	4	423.1	0
19	4	423.2	0
19	4	423.3	0
19	4	423.4	0
19	4	423.5	0
19	4	423.6	0
19	4	423.7	0
19	4	423.8	0
19	4	423.9	0
19	4	424	0
19	4	424.1	0
19	4	424.2	0
19	4	424.3	0
19	4	424.4	0
19	4	424.5	0
19	4	424.6	0
19	4	424.7	0
19	4	424.8	0
19	4	424.9	0
19	4	425	0
19	4	425.1	0
19	4	425.2	0
19	4	425.3	0
19	4	425.4	0
19	4	425.5	0
19	4	425.6	0
19	4	425.7	0
19	4	425.8	0
19	4	425.9	0
19	4	426	0
19	4	426.1	0
19	4	426.2	0
19	4	426.3	0
19	4	426.4	0
19	4	426.5	0
19	4	426.6	0
19	4	426.7	0
19	4	426.8	0
19	4	426.9	0
19	4	427	0
19	4	427.1	0
19	4	427.2	0
19	4	427.3	0
19	4	427.4	0
19	4	427.5	0
19	4	427.6	0
19	4	427.7	0
19	4	427.8	0
19	4	427.9	0
19	4	428	0
19	4	428.1	0
19	4	428.2	0
19	4	428.3	0
19	4	428.4	0
19	4	428.5	0
19	4	428.6	0
19	4	428.7	0
19	4	428.8	0
19	4	428.9	0
19	4	429	0
19	4	429.1	0
19	4	429.2	0
19	4	429.3	0
19	4	429.4	0
19	4	429.5	0
19	4	429.6	0
19	4	429.7	0
19	4	429.8	0
19	4	429.9	0
19	4	430	0
19	4	430.1	0
19	4	430.2	0
19	4	430.3	0
19	4	430.4	0
19	4	430.5	0
19	4	430.6	0
19	4	430.7	0
19	4	430.8	0
19	4	430.9	0
19	4	431	0
19	4	431.1	0
19	4	431.2	0
19	4	431.3	0
19	4	431.4	0
19	4	431.5	0
19	4	431.6	0
19	4	431.7	0
19	4	431.8	0
19	4	431.9	0
19	4	432	0
19	4	432.1	0
19	4	432.2	0
19	4	432.3	0
19	4	432.4	0
19	4	432.5	0
19	4	432.6	0
19	4	432.7	0
19	4	432.8	0
19	4	432.9	0
19	4	433	0
19	4	433.1	0
19	4	433.2	0
19	4	433.3	0
19	4	433.4	0
19	4	433.5	0
19	4	433.6	0
19	4	433.7	0
19	4	433.8	0
19	4	433.9	0
19	4	434	0
19	4	434.1	0
19	4	434.2	0
19	4	434.3	0
19	4	434.4	0
19	4	434.5	0
19	4	434.6	0
19	4	434.7	0
19	4	434.8	0
19	4	434.9	0
19	4	435	0
19	4	435.1	0
19	4	435.2	0
19	4	435.3	0
19	4	435.4	0
19	4	435.5	0
19	4	435.6	0
19	4	435.7	0
19	4	435.8	0
19	4	435.9	0
19	4	436	0
19	4	436.1	0
19	4	436.2	0
19	4	436.3	0
19	4	436.4	0
19	4	436.5	0
19	4	436.6	0
19	4	436.7	0
19	4	436.8	0
19	4	436.9	0
19	4	437	0
19	4	437.1	0
19	4	437.2	0
19	4	437.3	0
19	4	437.4	0
19	4	437.5	0
19	4	437.6	0
19	4	437.7	0
19	4	437.8	0
19	4	437.9	0
19	4	438	0
19	4	438.1	0
19	4	438.2	0
19	4	438.3	0
19	4	438.4	0
19	4	438.5	0
19	4	438.6	0
19	4	438.7	0
19	4	438.8	0
19	4	438.9	0
19	4	439	0
19	4	439.1	0
19	4	439.2	0
19	4	439.3	0
19	4	439.4	0
19	4	439.5	0
19	4	439.6	0
19	4	439.7	0
19	4	439.8	0
19	4	439.9	0
19	4	440	0
19	4	440.1	0
19	4	440.2	0
19	4	440.3	0
19	4	440.4	0
19	4	440.5	0
19	4	440.6	0
19	4	440.7	0
19	4	440.8	0
19	4	440.9	0
19	4	441	0
19	4	441.1	0
19	4	441.2	0
19	4	441.3	0
19	4	441.4	0
19	4	441.5	0
19	4	441.6	0
19	4	441.7	0
19	4	441.8	0
19	4	441.9	0
19	4	442	0
19	4	442.1	0
19	4	442.2	0
19	4	442.3	0
19	4	442.4	0
19	4	442.5	0
19	4	442.6	0
19	4	442.7	0
19	4	442.8	0
19	4	442.9	0
19	4	443	0
19	4	443.1	0
19	4	443.2	0
19	4	443.3	0
19	4	443.4	0
19	4	443.5	0
19	4	443.6	0
19	4	443.7	0
19	4	443.8	0
19	4	443.9	0
19	4	444	0
19	4	444.1	0
19	4	444.2	0
19	4	444.3	0
19	4	444.4	0
19	4	444.5	0
19	4	444.6	0
19	4	444.7	0
19	4	444.8	0
19	4	444.9	0
19	4	445	0
19	4	445.1	0
19	4	445.2	0
19	4	445.3	0
19	4	445.4	0
19	4	445.5	0
19	4	445.6	0
19	4	445.7	0
19	4	445.8	0
19	4	445.9	0
19	4	446	0
19	4	446.1	0
19	4	446.2	0
19	4	446.3	0
19	4	446.4	0
19	4	446.5	0
19	4	446.6	0
19	4	446.7	0
19	4	446.8	0
19	4	446.9	0
19	4	447	0
19	4	447.1	0
19	4	447.2	0
19	4	447.3	0
19	4	447.4	0
19	4	447.5	0
19	4	447.6	0
19	4	447.7	0
19	4	447.8	0
19	4	447.9	0
19	4	448	0
19	4	448.1	0
19	4	448.2	0
19	4	448.3	0
19	4	448.4	0
19	4	448.5	0
19	4	448.6	0
19	4	448.7	0
19	4	448.8	0
19	4	448.9	0
19	4	449	0
19	4	449.1	0
19	4	449.2	0
19	4	449.3	0
19	4	449.4	0
19	4	449.5	0
19	4	449.6	0
19	4	449.7	0
19	4	449.8	0
19	4	449.9	0
19	4	450	0
19	4	450.1	0
19	4	450.2	0
19	4	450.3	0
19	4	450.4	0
19	4	450.5	0
19	4	450.6	0
19	4	450.7	0
19	4	450.8	0
19	4	450.9	0
19	4	451	0
19	4	451.1	0
19	4	451.2	0
19	4	451.3	0
19	4	451.4	0
19	4	451.5	0
19	4	451.6	0
19	4	451.7	0
19	4	451.8	0
19	4	451.9	0
19	4	452	0
19	4	452.1	0
19	4	452.2	0
19	4	452.3	0
19	4	452.4	0
19	4	452.5	0
19	4	452.6	0
19	4	452.7	0
19	4	452.8	0
19	4	452.9	0
19	4	453	0
19	4	453.1	0
19	4	453.2	0
19	4	453.3	0
19	4	453.4	0
19	4	453.5	0
19	4	453.6	0
19	4	453.7	0
19	4	453.8	0
19	4	453.9	0
19	4	454	0
19	4	454.1	0
19	4	454.2	0
19	4	454.3	0
19	4	454.4	0
19	4	454.5	0
19	4	454.6	0
19	4	454.7	0
19	4	454.8	0
19	4	454.9	0
19	4	455	0
19	4	455.1	0
19	4	455.2	0
19	4	455.3	0
19	4	455.4	0
19	4	455.5	0
19	4	455.6	0
19	4	455.7	0
19	4	455.8	0
19	4	455.9	0
19	4	456	0
19	4	456.1	0
19	4	456.2	0
19	4	456.3	0
19	4	456.4	0
19	4	456.5	0
19	4	456.6	0
19	4	456.7	0
19	4	456.8	0
19	4	456.9	0
19	4	457	0
19	4	457.1	0
19	4	457.2	0
19	4	457.3	0
19	4	457.4	0
19	4	457.5	0
19	4	457.6	0
19	4	457.7	0
19	4	457.8	0
19	4	457.9	0
19	4	458	0
19	4	458.1	0
19	4	458.2	0
19	4	458.3	0
19	4	458.4	0
19	4	458.5	0
19	4	458.6	0
19	4	458.7	0
19	4	458.8	0
19	4	458.9	0
19	4	459	0
19	4	459.1	0
19	4	459.2	0
19	4	459.3	0
19	4	459.4	0
19	4	459.5	0
19	4	459.6	0
19	4	459.7	0
19	4	459.8	0
19	4	459.9	0
19	4	460	0
19	4	460.1	0
19	4	460.2	0
19	4	460.3	0
19	4	460.4	0
19	4	460.5	0
19	4	460.6	0
19	4	460.7	0
19	4	460.8	0
19	4	460.9	0
19	4	461	0
19	4	461.1	0
19	4	461.2	0
19	4	461.3	0
19	4	461.4	0
19	4	461.5	0
19	4	461.6	0
19	4	461.7	0
19	4	461.8	0
19	4	461.9	0
19	4	462	0
19	4	462.1	0
19	4	462.2	0
19	4	462.3	0
19	4	462.4	0
19	4	462.5	0
19	4	462.6	0
19	4	462.7	0
19	4	462.8	0
19	4	462.9	0
19	4	463	0
19	4	463.1	0
19	4	463.2	0
19	4	463.3	0
19	4	463.4	0
19	4	463.5	0
19	4	463.6	0
19	4	463.7	0
19	4	463.8	0
19	4	463.9	0
19	4	464	0
19	4	464.1	0
19	4	464.2	0
19	4	464.3	0
19	4	464.4	0
19	4	464.5	0
19	4	464.6	0
19	4	464.7	0
19	4	464.8	0
19	4	464.9	0
19	4	465	0
19	4	465.1	0
19	4	465.2	0
19	4	465.3	0
19	4	465.4	0
19	4	465.5	0
19	4	465.6	0
19	4	465.7	0
19	4	465.8	0
19	4	465.9	0
19	4	466	0
19	4	466.1	0
19	4	466.2	0
19	4	466.3	0
19	4	466.4	0
19	4	466.5	0
19	4	466.6	0
19	4	466.7	0
19	4	466.8	0
19	4	466.9	0
19	4	467	0
19	4	467.1	0
19	4	467.2	0
19	4	467.3	0
19	4	467.4	0
19	4	467.5	0
19	4	467.6	0
19	4	467.7	0
19	4	467.8	0
19	4	467.9	0
19	4	468	0
19	4	468.1	0
19	4	468.2	0
19	4	468.3	0
19	4	468.4	0
19	4	468.5	0
19	4	468.6	0
19	4	468.7	0
19	4	468.8	0
19	4	468.9	0
19	4	469	0
19	4	469.1	0
19	4	469.2	0
19	4	469.3	0
19	4	469.4	0
19	4	469.5	0
19	4	469.6	0
19	4	469.7	0
19	4	469.8	0
19	4	469.9	0
19	4	470	0
19	4	470.1	0
19	4	470.2	0
19	4	470.3	0
19	4	470.4	0
19	4	470.5	0
19	4	470.6	0
19	4	470.7	0
19	4	470.8	0
19	4	470.9	0
19	4	471	0
19	4	471.1	0
19	4	471.2	0
19	4	471.3	0
19	4	471.4	0
19	4	471.5	0
19	4	471.6	0
19	4	471.7	0
19	4	471.8	0
19	4	471.9	0
19	4	472	0
19	4	472.1	0
19	4	472.2	0
19	4	472.3	0
19	4	472.4	0
19	4	472.5	0
19	4	472.6	0
19	4	472.7	0
19	4	472.8	0
19	4	472.9	0
19	4	473	0
19	4	473.1	0
19	4	473.2	0
19	4	473.3	0
19	4	473.4	0
19	4	473.5	0
19	4	473.6	0
19	4	473.7	0
19	4	473.8	0
19	4	473.9	0
19	4	474	0
19	4	474.1	0
19	4	474.2	0
19	4	474.3	0
19	4	474.4	0
19	4	474.5	0
19	4	474.6	0
19	4	474.7	0
19	4	474.8	0
19	4	474.9	0
19	4	475	0
19	4	475.1	0
19	4	475.2	0
19	4	475.3	0
19	4	475.4	0
19	4	475.5	0
19	4	475.6	0
19	4	475.7	0
19	4	475.8	0
19	4	475.9	0
19	4	476	0
19	4	476.1	0
19	4	476.2	0
19	4	476.3	0
19	4	476.4	0
19	4	476.5	0
19	4	476.6	0
19	4	476.7	0
19	4	476.8	0
19	4	476.9	0
19	4	477	0
19	4	477.1	0
19	4	477.2	0
19	4	477.3	0
19	4	477.4	0
19	4	477.5	0
19	4	477.6	0
19	4	477.7	0
19	4	477.8	0
19	4	477.9	0
19	4	478	0
19	4	478.1	0
19	4	478.2	0
19	4	478.3	0
19	4	478.4	0
19	4	478.5	0
19	4	478.6	0
19	4	478.7	0
19	4	478.8	0
19	4	478.9	0
19	4	479	0
19	4	479.1	0
19	4	479.2	0
19	4	479.3	0
19	4	479.4	0
19	4	479.5	0
19	4	479.6	0
19	4	479.7	0
19	4	479.8	0
19	4	479.9	0
19	4	480	0
19	4	480.1	0
19	4	480.2	0
19	4	480.3	0
19	4	480.4	0
19	4	480.5	0
19	4	480.6	0
19	4	480.7	0
19	4	480.8	0
19	4	480.9	0
19	4	481	0
19	4	481.1	0
19	4	481.2	0
19	4	481.3	0
19	4	481.4	0
19	4	481.5	0
19	4	481.6	0
19	4	481.7	0
19	4	481.8	0
19	4	481.9	0
19	4	482	0
19	4	482.1	0
19	4	482.2	0
19	4	482.3	0
19	4	482.4	0
19	4	482.5	0
19	4	482.6	0
19	4	482.7	0
19	4	482.8	0
19	4	482.9	0
19	4	483	0
19	4	483.1	0
19	4	483.2	0
19	4	483.3	0
19	4	483.4	0
19	4	483.5	0
19	4	483.6	0
19	4	483.7	0
19	4	483.8	0
19	4	483.9	0
19	4	484	0
19	4	484.1	0
19	4	484.2	0
19	4	484.3	0
19	4	484.4	0
19	4	484.5	0
19	4	484.6	0
19	4	484.7	0
19	4	484.8	0
19	4	484.9	0
19	4	485	0
19	4	485.1	0
19	4	485.2	0
19	4	485.3	0
19	4	485.4	0
19	4	485.5	0
19	4	485.6	0
19	4	485.7	0
19	4	485.8	0
19	4	485.9	0
19	4	486	0
19	4	486.1	0
19	4	486.2	0
19	4	486.3	0
19	4	486.4	0
19	4	486.5	0
19	4	486.6	0
19	4	486.7	0
19	4	486.8	0
19	4	486.9	0
19	4	487	0
19	4	487.1	0
19	4	487.2	0
19	4	487.3	0
19	4	487.4	0
19	4	487.5	0
19	4	487.6	0
19	4	487.7	0
19	4	487.8	0
19	4	487.9	0
19	4	488	0
19	4	488.1	0
19	4	488.2	0
19	4	488.3	0
19	4	488.4	0
19	4	488.5	0
19	4	488.6	0
19	4	488.7	0
19	4	488.8	0
19	4	488.9	0
19	4	489	0
19	4	489.1	0
19	4	489.2	0
19	4	489.3	0
19	4	489.4	0
19	4	489.5	0
19	4	489.6	0
19	4	489.7	0
19	4	489.8	0
19	4	489.9	0
19	4	490	0
19	4	490.1	0
19	4	490.2	0
19	4	490.3	0
19	4	490.4	0
19	4	490.5	0
19	4	490.6	0
19	4	490.7	0
19	4	490.8	0
19	4	490.9	0
19	4	491	0
19	4	491.1	0
19	4	491.2	0
19	4	491.3	0
19	4	491.4	0
19	4	491.5	0
19	4	491.6	0
19	4	491.7	0
19	4	491.8	0
19	4	491.9	0
19	4	492	0
19	4	492.1	0
19	4	492.2	0
19	4	492.3	0
19	4	492.4	0
19	4	492.5	0
19	4	492.6	0
19	4	492.7	0
19	4	492.8	0
19	4	492.9	0
19	4	493	0
19	4	493.1	0
19	4	493.2	0
19	4	493.3	0
19	4	493.4	0
19	4	493.5	0
19	4	493.6	0
19	4	493.7	0
19	4	493.8	0
19	4	493.9	0
19	4	494	0
19	4	494.1	0
19	4	494.2	0
19	4	494.3	0
19	4	494.4	0
19	4	494.5	0
19	4	494.6	0
19	4	494.7	0
19	4	494.8	0
19	4	494.9	0
19	4	495	0
19	4	495.1	0
19	4	495.2	0
19	4	495.3	0
19	4	495.4	0
19	4	495.5	0
19	4	495.6	0
19	4	495.7	0
19	4	495.8	0
19	4	495.9	0
19	4	496	0
19	4	496.1	0
19	4	496.2	0
19	4	496.3	0
19	4	496.4	0
19	4	496.5	0
19	4	496.6	0
19	4	496.7	0
19	4	496.8	0
19	4	496.9	0
19	4	497	0
19	4	497.1	0
19	4	497.2	0
19	4	497.3	0
19	4	497.4	0
19	4	497.5	0
19	4	497.6	0
19	4	497.7	0
19	4	497.8	0
19	4	497.9	0
19	4	498	0
19	4	498.1	0
19	4	498.2	0
19	4	498.3	0
19	4	498.4	0
19	4	498.5	0
19	4	498.6	0
19	4	498.7	0
19	4	498.8	0
19	4	498.9	0
19	4	499	0
19	4	499.1	0
19	4	499.2	0
19	4	499.3	0
19	4	499.4	0
19	4	499.5	0
19	4	499.6	0
19	4	499.7	0
19	4	499.8	0
19	4	499.9	0
19	4	500	0
19	4	500.1	0
19	4	500.2	0
19	4	500.3	0
19	4	500.4	0
19	4	500.5	0
19	4	500.6	0
19	4	500.7	0
19	4	500.8	0
19	4	500.9	0
19	4	501	0
19	4	501.1	0
19	4	501.2	0
19	4	501.3	0
19	4	501.4	0
19	4	501.5	0
19	4	501.6	0
19	4	501.7	0
19	4	501.8	0
19	4	501.9	0
19	4	502	0
19	4	502.1	0
19	4	502.2	0
19	4	502.3	0
19	4	502.4	0
19	4	502.5	0
19	4	502.6	0
19	4	502.7	0
19	4	502.8	0
19	4	502.9	0
19	4	503	0
19	4	503.1	0
19	4	503.2	0
19	4	503.3	0
19	4	503.4	0
19	4	503.5	0
19	4	503.6	0
19	4	503.7	0
19	4	503.8	0
19	4	503.9	0
19	4	504	0
19	4	504.1	0
19	4	504.2	0
19	4	504.3	0
19	4	504.4	0
19	4	504.5	0
19	4	504.6	0
19	4	504.7	0
19	4	504.8	0
19	4	504.9	0
19	4	505	0
19	4	505.1	0
19	4	505.2	0
19	4	505.3	0
19	4	505.4	0
19	4	505.5	0
19	4	505.6	0
19	4	505.7	0
19	4	505.8	0
19	4	505.9	0
19	4	506	0
19	4	506.1	0
19	4	506.2	0
19	4	506.3	0
19	4	506.4	0
19	4	506.5	0
19	4	506.6	0
19	4	506.7	0
19	4	506.8	0
19	4	506.9	0
19	4	507	0
19	4	507.1	0
19	4	507.2	0
19	4	507.3	0
19	4	507.4	0
19	4	507.5	0
19	4	507.6	0
19	4	507.7	0
19	4	507.8	0
19	4	507.9	0
19	4	508	0
19	4	508.1	0
19	4	508.2	0
19	4	508.3	0
19	4	508.4	0
19	4	508.5	0
19	4	508.6	0
19	4	508.7	0
19	4	508.8	0
19	4	508.9	0
19	4	509	0
19	4	509.1	0
19	4	509.2	0
19	4	509.3	0
19	4	509.4	0
19	4	509.5	0
19	4	509.6	0
19	4	509.7	0
19	4	509.8	0
19	4	509.9	0
19	4	510	0
19	4	510.1	0
19	4	510.2	0
19	4	510.3	0
19	4	510.4	0
19	4	510.5	0
19	4	510.6	0
19	4	510.7	0
19	4	510.8	0
19	4	510.9	0
19	4	511	0
19	4	511.1	0
19	4	511.2	0
19	4	511.3	0
19	4	511.4	0
19	4	511.5	0
19	4	511.6	0
19	4	511.7	0
19	4	511.8	0
19	4	511.9	0
19	4	512	0
19	4	512.1	0
19	4	512.2	0
19	4	512.3	0
19	4	512.4	0
19	4	512.5	0
19	4	512.6	0
19	4	512.7	0
19	4	512.8	0
19	4	512.9	0
19	4	513	0
19	4	513.1	0
19	4	513.2	0
19	4	513.3	0
19	4	513.4	0
19	4	513.5	0
19	4	513.6	0
19	4	513.7	0
19	4	513.8	0
19	4	513.9	0
19	4	514	0
19	4	514.1	0
19	4	514.2	0
19	4	514.3	0
19	4	514.4	0
19	4	514.5	0
19	4	514.6	0
19	4	514.7	0
19	4	514.8	0
19	4	514.9	0
19	4	515	0
19	4	515.1	0
19	4	515.2	0
19	4	515.3	0
19	4	515.4	0
19	4	515.5	0
19	4	515.6	0
19	4	515.7	0
19	4	515.8	0
19	4	515.9	0
19	4	516	0
19	4	516.1	0
19	4	516.2	0
19	4	516.3	0
19	4	516.4	0
19	4	516.5	0
19	4	516.6	0
19	4	516.7	0
19	4	516.8	0
19	4	516.9	0
19	4	517	0
19	4	517.1	0
19	4	517.2	0
19	4	517.3	0
19	4	517.4	0
19	4	517.5	0
19	4	517.6	0
19	4	517.7	0
19	4	517.8	0
19	4	517.9	0
19	4	518	0
19	4	518.1	0
19	4	518.2	0
19	4	518.3	0
19	4	518.4	0
19	4	518.5	0
19	4	518.6	0
19	4	518.7	0
19	4	518.8	0
19	4	518.9	0
19	4	519	0
19	4	519.1	0
19	4	519.2	0
19	4	519.3	0
19	4	519.4	0
19	4	519.5	0
19	4	519.6	0
19	4	519.7	0
19	4	519.8	0
19	4	519.9	0
19	4	520	0
19	4	520.1	0
19	4	520.2	0
19	4	520.3	0
19	4	520.4	0
19	4	520.5	0
19	4	520.6	0
19	4	520.7	0
19	4	520.8	0
19	4	520.9	0
19	4	521	0
19	4	521.1	0
19	4	521.2	0
19	4	521.3	0
19	4	521.4	0
19	4	521.5	0
19	4	521.6	0
19	4	521.7	0
19	4	521.8	0
19	4	521.9	0
19	4	522	0
19	4	522.1	0
19	4	522.2	0
19	4	522.3	0
19	4	522.4	0
19	4	522.5	0
19	4	522.6	0
19	4	522.7	0
19	4	522.8	0
19	4	522.9	0
19	4	523	0
19	4	523.1	0
19	4	523.2	0
19	4	523.3	0
19	4	523.4	0
19	4	523.5	0
19	4	523.6	0
19	4	523.7	0
19	4	523.8	0
19	4	523.9	0
19	4	524	0
19	4	524.1	0
19	4	524.2	0
19	4	524.3	0
19	4	524.4	0
19	4	524.5	0
19	4	524.6	0
19	4	524.7	0
19	4	524.8	0
19	4	524.9	0
19	4	525	0
19	4	525.1	0
19	4	525.2	0
19	4	525.3	0
19	4	525.4	0
19	4	525.5	0
19	4	525.6	0
19	4	525.7	0
19	4	525.8	0
19	4	525.9	0
19	4	526	0
19	4	526.1	0
19	4	526.2	0
19	4	526.3	0
19	4	526.4	0
19	4	526.5	0
19	4	526.6	0
19	4	526.7	0
19	4	526.8	0
19	4	526.9	0
19	4	527	0
19	4	527.1	0
19	4	527.2	0
19	4	527.3	0
19	4	527.4	0
19	4	527.5	0
19	4	527.6	0
19	4	527.7	0
19	4	527.8	0
19	4	527.9	0
19	4	528	0
19	4	528.1	0
19	4	528.2	0
19	4	528.3	0
19	4	528.4	0
19	4	528.5	0
19	4	528.6	0
19	4	528.7	0
19	4	528.8	0
19	4	528.9	0
19	4	529	0
19	4	529.1	0
19	4	529.2	0
19	4	529.3	0
19	4	529.4	0
19	4	529.5	0
19	4	529.6	0
19	4	529.7	0
19	4	529.8	0
19	4	529.9	0
19	4	530	0
19	4	530.1	0
19	4	530.2	0
19	4	530.3	0
19	4	530.4	0
19	4	530.5	0
19	4	530.6	0
19	4	530.7	0
19	4	530.8	0
19	4	530.9	0
19	4	531	0
19	4	531.1	0
19	4	531.2	0
19	4	531.3	0
19	4	531.4	0
19	4	531.5	0
19	4	531.6	0
19	4	531.7	0
19	4	531.8	0
19	4	531.9	0
19	4	532	0
19	4	532.1	0
19	4	532.2	0
19	4	532.3	0
19	4	532.4	0
19	4	532.5	0
19	4	532.6	0
19	4	532.7	0
19	4	532.8	0
19	4	532.9	0
19	4	533	0
19	4	533.1	0
19	4	533.2	0
19	4	533.3	0
19	4	533.4	0
19	4	533.5	0
19	4	533.6	0
19	4	533.7	0
19	4	533.8	0
19	4	533.9	0
19	4	534	0
19	4	534.1	0
19	4	534.2	0
19	4	534.3	0
19	4	534.4	0
19	4	534.5	0
19	4	534.6	0
19	4	534.7	0
19	4	534.8	0
19	4	534.9	0
19	4	535	0
19	4	535.1	0
19	4	535.2	0
19	4	535.3	0
19	4	535.4	0
19	4	535.5	0
19	4	535.6	0
19	4	535.7	0
19	4	535.8	0
19	4	535.9	0
19	4	536	0
19	4	536.1	0
19	4	536.2	0
19	4	536.3	0
19	4	536.4	0
19	4	536.5	0
19	4	536.6	0
19	4	536.7	0
19	4	536.8	0
19	4	536.9	0
19	4	537	0
19	4	537.1	0
19	4	537.2	0
19	4	537.3	0
19	4	537.4	0
19	4	537.5	0
19	4	537.6	0
19	4	537.7	0
19	4	537.8	0
19	4	537.9	0
19	4	538	0
19	4	538.1	0
19	4	538.2	0
19	4	538.3	0
19	4	538.4	0
19	4	538.5	0
19	4	538.6	0
19	4	538.7	0
19	4	538.8	0
19	4	538.9	0
19	4	539	0
19	4	539.1	0
19	4	539.2	0
19	4	539.3	0
19	4	539.4	0
19	4	539.5	0
19	4	539.6	0
19	4	539.7	0
19	4	539.8	0
19	4	539.9	0
19	4	540	0
19	4	540.1	0
19	4	540.2	0
19	4	540.3	0
19	4	540.4	0
19	4	540.5	0
19	4	540.6	0
19	4	540.7	0
19	4	540.8	0
19	4	540.9	0
19	4	541	0
19	4	541.1	0
19	4	541.2	0
19	4	541.3	0
19	4	541.4	0
19	4	541.5	0
19	4	541.6	0
19	4	541.7	0
19	4	541.8	0
19	4	541.9	0
19	4	542	0
19	4	542.1	0
19	4	542.2	0
19	4	542.3	0
19	4	542.4	0
19	4	542.5	0
19	4	542.6	0
19	4	542.7	0
19	4	542.8	0
19	4	542.9	0
19	4	543	0
19	4	543.1	0
19	4	543.2	0
19	4	543.3	0
19	4	543.4	0
19	4	543.5	0
19	4	543.6	0
19	4	543.7	0
19	4	543.8	0
19	4	543.9	0
19	4	544	0
19	4	544.1	0
19	4	544.2	0
19	4	544.3	0
19	4	544.4	0
19	4	544.5	0
19	4	544.6	0
19	4	544.7	0
19	4	544.8	0
19	4	544.9	0
19	4	545	0
19	4	545.1	0
19	4	545.2	0
19	4	545.3	0
19	4	545.4	0
19	4	545.5	0
19	4	545.6	0
19	4	545.7	0
19	4	545.8	0
19	4	545.9	0
19	4	546	0
19	4	546.1	0
19	4	546.2	0
19	4	546.3	0
19	4	546.4	0
19	4	546.5	0
19	4	546.6	0
19	4	546.7	0
19	4	546.8	0
19	4	546.9	0
19	4	547	0
19	4	547.1	0
19	4	547.2	0
19	4	547.3	0
19	4	547.4	0
19	4	547.5	0
19	4	547.6	0
19	4	547.7	0
19	4	547.8	0
19	4	547.9	0
19	4	548	0
19	4	548.1	0
19	4	548.2	0
19	4	548.3	0
19	4	548.4	0
19	4	548.5	0
19	4	548.6	0
19	4	548.7	0
19	4	548.8	0
19	4	548.9	0
19	4	549	0
19	4	549.1	0
19	4	549.2	0
19	4	549.3	0
19	4	549.4	0
19	4	549.5	0
19	4	549.6	0
19	4	549.7	0
19	4	549.8	0
19	4	549.9	0
19	4	550	0
19	4	550.1	0
19	4	550.2	0
19	4	550.3	0
19	4	550.4	0
19	4	550.5	0
19	4	550.6	0
19	4	550.7	0
19	4	550.8	0
19	4	550.9	0
19	4	551	0
19	4	551.1	0
19	4	551.2	0
19	4	551.3	0
19	4	551.4	0
19	4	551.5	0
19	4	551.6	0
19	4	551.7	0
19	4	551.8	0
19	4	551.9	0
19	4	552	0
19	4	552.1	0
19	4	552.2	0
19	4	552.3	0
19	4	552.4	0
19	4	552.5	0
19	4	552.6	0
19	4	552.7	0
19	4	552.8	0
19	4	552.9	0
19	4	553	0
19	4	553.1	0
19	4	553.2	0
19	4	553.3	0
19	4	553.4	0
19	4	553.5	0
19	4	553.6	0
19	4	553.7	0
19	4	553.8	0
19	4	553.9	0
19	4	554	0
19	4	554.1	0
19	4	554.2	0
19	4	554.3	0
19	4	554.4	0
19	4	554.5	0
19	4	554.6	0
19	4	554.7	0
19	4	554.8	0
19	4	554.9	0
19	4	555	0
19	4	555.1	0
19	4	555.2	0
19	4	555.3	0
19	4	555.4	0
19	4	555.5	0
19	4	555.6	0
19	4	555.7	0
19	4	555.8	0
19	4	555.9	0
19	4	556	0
19	4	556.1	0
19	4	556.2	0
19	4	556.3	0
19	4	556.4	0
19	4	556.5	0
19	4	556.6	0
19	4	556.7	0
19	4	556.8	0
19	4	556.9	0
19	4	557	0
19	4	557.1	0
19	4	557.2	0
19	4	557.3	0
19	4	557.4	0
19	4	557.5	0
19	4	557.6	0
19	4	557.7	0
[...]
110	65	1131.3	0
110	65	1131.4	0
110	65	1131.5	0
110	65	1131.6	0
110	65	1131.7	0
110	65	1131.8	0
110	65	1131.9	0
110	65	1132	0
110	65	1132.1	0
110	65	1132.2	0
110	65	1132.3	0
110	65	1132.4	0
110	65	1132.5	0
110	65	1132.6	0
110	65	1132.7	0
110	65	1132.8	0
110	65	1132.9	0
110	65	1133	0
110	65	1133.1	0
110	65	1133.2	0
110	65	1133.3	0
110	65	1133.4	0
110	65	1133.5	0
110	65	1133.6	0
110	65	1133.7	0
110	65	1133.8	0
110	65	1133.9	0
110	65	1134	0
110	65	1134.1	0
110	65	1134.2	0
110	65	1134.3	0
110	65	1134.4	0
110	65	1134.5	0
110	65	1134.6	0
110	65	1134.7	0
110	65	1134.8	0
110	65	1134.9	0
110	65	1135	0
110	65	1135.1	0
110	65	1135.2	0
110	65	1135.3	0
110	65	1135.4	0
110	65	1135.5	0
110	65	1135.6	0
110	65	1135.7	0
110	65	1135.8	0
110	65	1135.9	0
110	65	1136	0
110	65	1136.1	0
110	65	1136.2	0
110	65	1136.3	0
110	65	1136.4	0
110	65	1136.5	0
110	65	1136.6	0
110	65	1136.7	0
110	65	1136.8	0
110	65	1136.9	0
110	65	1137	0
110	65	1137.1	0
110	65	1137.2	0
110	65	1137.3	0
110	65	1137.4	0
110	65	1137.5	0
110	65	1137.6	0
110	65	1137.7	0
110	65	1137.8	0
110	65	1137.9	0
110	65	1138	0
110	65	1138.1	0
110	65	1138.2	0
110	65	1138.3	0
110	65	1138.4	0
110	65	1138.5	0
110	65	1138.6	0
110	65	1138.7	0
110	65	1138.8	0
110	65	1138.9	0
110	65	1139	0
110	65	1139.1	0
110	65	1139.2	0
110	65	1139.3	0
110	65	1139.4	0
110	65	1139.5	0
110	65	1139.6	0
110	65	1139.7	0
110	65	1139.8	0
110	65	1139.9	0
110	65	1140	0
110	65	1140.1	0
110	65	1140.2	0
110	65	1140.3	0
110	65	1140.4	0
110	65	1140.5	0
110	65	1140.6	0
110	65	1140.7	0
110	65	1140.8	0
110	65	1140.9	0
110	65	1141	0
110	65	1141.1	0
110	65	1141.2	0
110	65	1141.3	0
110	65	1141.4	0
110	65	1141.5	0
110	65	1141.6	0
110	65	1141.7	0
110	65	1141.8	0
110	65	1141.9	0
110	65	1142	0
110	65	1142.1	0
110	65	1142.2	0
110	65	1142.3	0
110	65	1142.4	0
110	65	1142.5	0
110	65	1142.6	0
110	65	1142.7	0
110	65	1142.8	0
110	65	1142.9	0
110	65	1143	0
110	65	1143.1	0
110	65	1143.2	0
110	65	1143.3	0
110	65	1143.4	0
110	65	1143.5	0
110	65	1143.6	0
110	65	1143.7	0
110	65	1143.8	0
110	65	1143.9	0
110	65	1144	0
110	65	1144.1	0
110	65	1144.2	0
110	65	1144.3	0
110	65	1144.4	0
110	65	1144.5	0
110	65	1144.6	0
110	65	1144.7	0
110	65	1144.8	0
110	65	1144.9	0
110	65	1145	0
110	65	1145.1	0
110	65	1145.2	0
110	65	1145.3	0
110	65	1145.4	0
110	65	1145.5	0
110	65	1145.6	0
110	65	1145.7	0
110	65	1145.8	0
110	65	1145.9	0
110	65	1146	0
110	65	1146.1	0
110	65	1146.2	0
110	65	1146.3	0
110	65	1146.4	0
110	65	1146.5	0
110	65	1146.6	0
110	65	1146.7	0
110	65	1146.8	0
110	65	1146.9	0
110	65	1147	0
110	65	1147.1	0
110	65	1147.2	0
110	65	1147.3	0
110	65	1147.4	0
110	65	1147.5	0
110	65	1147.6	0
110	65	1147.7	0
110	65	1147.8	0
110	65	1147.9	0
110	65	1148	0
110	65	1148.1	0
110	65	1148.2	0
110	65	1148.3	0
110	65	1148.4	0
110	65	1148.5	0
110	65	1148.6	0
110	65	1148.7	0
110	65	1148.8	0
110	65	1148.9	0
110	65	1149	0
110	65	1149.1	0
110	65	1149.2	0
110	65	1149.3	0
110	65	1149.4	0
110	65	1149.5	0
110	65	1149.6	0
110	65	1149.7	0
110	65	1149.8	0
110	65	1149.9	0
110	65	1150	0
110	65	1150.1	0
110	65	1150.2	0
110	65	1150.3	0
110	65	1150.4	0
110	65	1150.5	0
110	65	1150.6	0
110	65	1150.7	0
110	65	1150.8	0
110	65	1150.9	0
110	65	1151	0
110	65	1151.1	0
110	65	1151.2	0
110	65	1151.3	0
110	65	1151.4	0
110	65	1151.5	0
110	65	1151.6	0
110	65	1151.7	0
110	65	1151.8	0
110	65	1151.9	0
110	65	1152	0
110	65	1152.1	0
110	65	1152.2	0
110	65	1152.3	0
110	65	1152.4	0
110	65	1152.5	0
110	65	1152.6	0
110	65	1152.7	0
110	65	1152.8	0
110	65	1152.9	0
110	65	1153	0
110	65	1153.1	0
110	65	1153.2	0
110	65	1153.3	0
110	65	1153.4	0
110	65	1153.5	0
110	65	1153.6	0
110	65	1153.7	0
110	65	1153.8	0
110	65	1153.9	0
110	65	1154	0
110	65	1154.1	0
110	65	1154.2	0
110	65	1154.3	0
110	65	1154.4	0
110	65	1154.5	0
110	65	1154.6	0
110	65	1154.7	0
110	65	1154.8	0
110	65	1154.9	0
110	65	1155	0
110	65	1155.1	0
110	65	1155.2	0
110	65	1155.3	0
110	65	1155.4	0
110	65	1155.5	0
110	65	1155.6	0
110	65	1155.7	0
110	65	1155.8	0
110	65	1155.9	0
110	65	1156	0
110	65	1156.1	0
110	65	1156.2	0
110	65	1156.3	0
110	65	1156.4	0
110	65	1156.5	0
110	65	1156.6	0
110	65	1156.7	0
110	65	1156.8	0
110	65	1156.9	0
110	65	1157	0
110	65	1157.1	0
110	65	1157.2	0
110	65	1157.3	0
110	65	1157.4	0
110	65	1157.5	0
110	65	1157.6	0
110	65	1157.7	0
110	65	1157.8	0
110	65	1157.9	0
110	65	1158	0
110	65	1158.1	0
110	65	1158.2	0
110	65	1158.3	0
110	65	1158.4	0
110	65	1158.5	0
110	65	1158.6	0
110	65	1158.7	0
110	65	1158.8	0
110	65	1158.9	0
110	65	1159	0
110	65	1159.1	0
110	65	1159.2	0
110	65	1159.3	0
110	65	1159.4	0
110	65	1159.5	0
110	65	1159.6	0
110	65	1159.7	0
110	65	1159.8	0
110	65	1159.9	0
110	65	1160	0
110	65	1160.1	0
110	65	1160.2	0
110	65	1160.3	0
110	65	1160.4	0
110	65	1160.5	0
110	65	1160.6	0
110	65	1160.7	0
110	65	1160.8	0
110	65	1160.9	0
110	65	1161	0
110	65	1161.1	0
110	65	1161.2	0
110	65	1161.3	0
110	65	1161.4	0
110	65	1161.5	0
110	65	1161.6	0
110	65	1161.7	0
110	65	1161.8	0
110	65	1161.9	0
110	65	1162	0
110	65	1162.1	0
110	65	1162.2	0
110	65	1162.3	0
110	65	1162.4	0
110	65	1162.5	0
110	65	1162.6	0
110	65	1162.7	0
110	65	1162.8	0
110	65	1162.9	0
110	65	1163	0
110	65	1163.1	0
110	65	1163.2	0
110	65	1163.3	0
110	65	1163.4	0
110	65	1163.5	0
110	65	1163.6	0
110	65	1163.7	0
110	65	1163.8	0
110	65	1163.9	0
110	65	1164	0
110	65	1164.1	0
110	65	1164.2	0
110	65	1164.3	0
110	65	1164.4	0
110	65	1164.5	0
110	65	1164.6	0
110	65	1164.7	0
110	65	1164.8	0
110	65	1164.9	0
110	65	1165	0
110	65	1165.1	0
110	65	1165.2	0
110	65	1165.3	0
110	65	1165.4	0
110	65	1165.5	0
110	65	1165.6	0
110	65	1165.7	0
110	65	1165.8	0
110	65	1165.9	0
110	65	1166	0
110	65	1166.1	0
110	65	1166.2	0
110	65	1166.3	0
110	65	1166.4	0
110	65	1166.5	0
110	65	1166.6	0
110	65	1166.7	0
110	65	1166.8	0
110	65	1166.9	0
110	65	1167	0
110	65	1167.1	0
110	65	1167.2	0
110	65	1167.3	0
110	65	1167.4	0
110	65	1167.5	0
110	65	1167.6	0
110	65	1167.7	0
110	65	1167.8	0
110	65	1167.9	0
110	65	1168	0
110	65	1168.1	0
110	65	1168.2	0
110	65	1168.3	0
110	65	1168.4	0
110	65	1168.5	0
110	65	1168.6	0
110	65	1168.7	0
110	65	1168.8	0
110	65	1168.9	0
110	65	1169	0
110	65	1169.1	0
110	65	1169.2	0
110	65	1169.3	0
110	65	1169.4	0
110	65	1169.5	0
110	65	1169.6	0
110	65	1169.7	0
110	65	1169.8	0
110	65	1169.9	0
110	65	1170	0
110	65	1170.1	0
110	65	1170.2	0
110	65	1170.3	0
110	65	1170.4	0
110	65	1170.5	0
110	65	1170.6	0
110	65	1170.7	0
110	65	1170.8	0
110	65	1170.9	0
110	65	1171	0
110	65	1171.1	0
110	65	1171.2	0
110	65	1171.3	0
110	65	1171.4	0
110	65	1171.5	0
110	65	1171.6	0
110	65	1171.7	0
110	65	1171.8	0
110	65	1171.9	0
110	65	1172	0
110	65	1172.1	0
110	65	1172.2	0
110	65	1172.3	0
110	65	1172.4	0
110	65	1172.5	0
110	65	1172.6	0
110	65	1172.7	0
110	65	1172.8	0
110	65	1172.9	0
110	65	1173	0
110	65	1173.1	0
110	65	1173.2	0
110	65	1173.3	0
110	65	1173.4	0
110	65	1173.5	0
110	65	1173.6	0
110	65	1173.7	0
110	65	1173.8	0
110	65	1173.9	0
110	65	1174	0
110	65	1174.1	0
110	65	1174.2	0
110	65	1174.3	0
110	65	1174.4	0
110	65	1174.5	0
110	65	1174.6	0
110	65	1174.7	0
110	65	1174.8	0
110	65	1174.9	0
110	65	1175	0
110	65	1175.1	0
110	65	1175.2	0
110	65	1175.3	0
110	65	1175.4	0
110	65	1175.5	0
110	65	1175.6	0
110	65	1175.7	0
110	65	1175.8	0
110	65	1175.9	0
110	65	1176	0
110	65	1176.1	0
110	65	1176.2	0
110	65	1176.3	0
110	65	1176.4	0
110	65	1176.5	0
110	65	1176.6	0
110	65	1176.7	0
110	65	1176.8	0
110	65	1176.9	0
110	65	1177	0
110	65	1177.1	0
110	65	1177.2	0
110	65	1177.3	0
110	65	1177.4	0
110	65	1177.5	0
110	65	1177.6	0
110	65	1177.7	0
110	65	1177.8	0
110	65	1177.9	0
110	65	1178	0
110	65	1178.1	0
110	65	1178.2	0
110	65	1178.3	0
110	65	1178.4	0
110	65	1178.5	0
110	65	1178.6	0
110	65	1178.7	0
110	65	1178.8	0
110	65	1178.9	0
110	65	1179	0
110	65	1179.1	0
110	65	1179.2	0
110	65	1179.3	0
110	65	1179.4	0
110	65	1179.5	0
110	65	1179.6	0
110	65	1179.7	0
110	65	1179.8	0
110	65	1179.9	0
110	65	1180	0
110	65	1180.1	0
110	65	1180.2	0
110	65	1180.3	0
110	65	1180.4	0
110	65	1180.5	0
110	65	1180.6	0
110	65	1180.7	0
110	65	1180.8	0
110	65	1180.9	0
110	65	1181	0
110	65	1181.1	0
110	65	1181.2	0
110	65	1181.3	0
110	65	1181.4	0
110	65	1181.5	0
110	65	1181.6	0
110	65	1181.7	0
110	65	1181.8	0
110	65	1181.9	0
110	65	1182	0
110	65	1182.1	0
110	65	1182.2	0
110	65	1182.3	0
110	65	1182.4	0
110	65	1182.5	0
110	65	1182.6	0
110	65	1182.7	0
110	65	1182.8	0
110	65	1182.9	0
110	65	1183	0
110	65	1183.1	0
110	65	1183.2	0
110	65	1183.3	0
110	65	1183.4	0
110	65	1183.5	0
110	65	1183.6	0
110	65	1183.7	0
110	65	1183.8	0
110	65	1183.9	0
110	65	1184	0
110	65	1184.1	0
110	65	1184.2	0
110	65	1184.3	0
110	65	1184.4	0
110	65	1184.5	0
110	65	1184.6	0
110	65	1184.7	0
110	65	1184.8	0
110	65	1184.9	0
110	65	1185	0
110	65	1185.1	0
110	65	1185.2	0
110	65	1185.3	0
110	65	1185.4	0
110	65	1185.5	0
110	65	1185.6	0
110	65	1185.7	0
110	65	1185.8	0
110	65	1185.9	0
110	65	1186	0
110	65	1186.1	0
110	65	1186.2	0
110	65	1186.3	0
110	65	1186.4	0
110	65	1186.5	0
110	65	1186.6	0
110	65	1186.7	0
110	65	1186.8	0
110	65	1186.9	0
110	65	1187	0
110	65	1187.1	0
110	65	1187.2	0
110	65	1187.3	0
110	65	1187.4	0
110	65	1187.5	0
110	65	1187.6	0
110	65	1187.7	0
110	65	1187.8	0
110	65	1187.9	0
110	65	1188	0
110	65	1188.1	0
110	65	1188.2	0
110	65	1188.3	0
110	65	1188.4	0
110	65	1188.5	0
110	65	1188.6	0
110	65	1188.7	0
110	65	1188.8	0
110	65	1188.9	0
110	65	1189	0
110	65	1189.1	0
110	65	1189.2	0
110	65	1189.3	0
110	65	1189.4	0
110	65	1189.5	0
110	65	1189.6	0
110	65	1189.7	0
110	65	1189.8	0
110	65	1189.9	0
110	65	1190	0
110	65	1190.1	0
110	65	1190.2	0
110	65	1190.3	0
110	65	1190.4	0
110	65	1190.5	0
110	65	1190.6	0
110	65	1190.7	0
110	65	1190.8	0
110	65	1190.9	0
110	65	1191	0
110	65	1191.1	0
110	65	1191.2	0
110	65	1191.3	0
110	65	1191.4	0
110	65	1191.5	0
110	65	1191.6	0
110	65	1191.7	0
110	65	1191.8	0
110	65	1191.9	0
110	65	1192	0
110	65	1192.1	0
110	65	1192.2	0
110	65	1192.3	0
110	65	1192.4	0
110	65	1192.5	0
110	65	1192.6	0
110	65	1192.7	0
110	65	1192.8	0
110	65	1192.9	0
110	65	1193	0
110	65	1193.1	0
110	65	1193.2	0
110	65	1193.3	0
110	65	1193.4	0
110	65	1193.5	0
110	65	1193.6	0
110	65	1193.7	0
110	65	1193.8	0
110	65	1193.9	0
110	65	1194	0
110	65	1194.1	0
110	65	1194.2	0
110	65	1194.3	0
110	65	1194.4	0
110	65	1194.5	0
110	65	1194.6	0
110	65	1194.7	0
110	65	1194.8	0
110	65	1194.9	0
110	65	1195	0
110	65	1195.1	0
110	65	1195.2	0
110	65	1195.3	0
110	65	1195.4	0
110	65	1195.5	0
110	65	1195.6	0
110	65	1195.7	0
110	65	1195.8	0
110	65	1195.9	0
110	65	1196	0
110	65	1196.1	0
110	65	1196.2	0
110	65	1196.3	0
110	65	1196.4	0
110	65	1196.5	0
110	65	1196.6	0
110	65	1196.7	0
110	65	1196.8	0
110	65	1196.9	0
110	65	1197	0
110	65	1197.1	0
110	65	1197.2	0
110	65	1197.3	0
110	65	1197.4	0
110	65	1197.5	0
110	65	1197.6	0
110	65	1197.7	0
110	65	1197.8	0
110	65	1197.9	0
110	65	1198	0
110	65	1198.1	0
110	65	1198.2	0
110	65	1198.3	0
110	65	1198.4	0
110	65	1198.5	0
110	65	1198.6	0
110	65	1198.7	0
110	65	1198.8	0
110	65	1198.9	0
110	65	1199	0
110	65	1199.1	0
110	65	1199.2	0
110	65	1199.3	0
110	65	1199.4	0
110	65	1199.5	0
110	65	1199.6	0
110	65	1199.7	0
110	65	1199.8	0
110	65	1199.9	0
110	65	1200	0
110	65	1200.1	0
110	65	1200.2	0
110	65	1200.3	0
110	65	1200.4	0
110	65	1200.5	0
110	65	1200.6	0
110	65	1200.7	0
110	65	1200.8	0
110	65	1200.9	0
110	65	1201	0
110	65	1201.1	0
110	65	1201.2	0
110	65	1201.3	0
110	65	1201.4	0
110	65	1201.5	0
110	65	1201.6	0
110	65	1201.7	0
110	65	1201.8	0
110	65	1201.9	0
110	65	1202	0
110	65	1202.1	0
110	65	1202.2	0
110	65	1202.3	0
110	65	1202.4	0
110	65	1202.5	0
110	65	1202.6	0
110	65	1202.7	0
110	65	1202.8	0
110	65	1202.9	0
110	65	1203	0
110	65	1203.1	0
110	65	1203.2	0
110	65	1203.3	0
110	65	1203.4	0
110	65	1203.5	0
110	65	1203.6	0
110	65	1203.7	0
110	65	1203.8	0
110	65	1203.9	0
110	65	1204	0
110	65	1204.1	0
110	65	1204.2	0
110	65	1204.3	0
110	65	1204.4	0
110	65	1204.5	0
110	65	1204.6	0
110	65	1204.7	0
110	65	1204.8	0
110	65	1204.9	0
110	65	1205	0
110	65	1205.1	0
110	65	1205.2	0
110	65	1205.3	0
110	65	1205.4	0
110	65	1205.5	0
110	65	1205.6	0
110	65	1205.7	0
110	65	1205.8	0
110	65	1205.9	0
110	65	1206	0
110	65	1206.1	0
110	65	1206.2	0
110	65	1206.3	0
110	65	1206.4	0
110	65	1206.5	0
110	65	1206.6	0
110	65	1206.7	0
110	65	1206.8	0
110	65	1206.9	0
110	65	1207	0
110	65	1207.1	0
110	65	1207.2	0
110	65	1207.3	0
110	65	1207.4	0
110	65	1207.5	0
110	65	1207.6	0
110	65	1207.7	0
110	65	1207.8	0
110	65	1207.9	0
110	65	1208	0
110	65	1208.1	0
110	65	1208.2	0
110	65	1208.3	0
110	65	1208.4	0
110	65	1208.5	0
110	65	1208.6	0
110	65	1208.7	0
110	65	1208.8	0
110	65	1208.9	0
110	65	1209	0
110	65	1209.1	0
110	65	1209.2	0
110	65	1209.3	0
110	65	1209.4	0
110	65	1209.5	0
110	65	1209.6	0
110	65	1209.7	0
110	65	1209.8	0
110	65	1209.9	0
110	65	1210	0
110	65	1210.1	0
110	65	1210.2	0
110	65	1210.3	0
110	65	1210.4	0
110	65	1210.5	0
110	65	1210.6	0
110	65	1210.7	0
110	65	1210.8	0
110	65	1210.9	0
110	65	1211	0
110	65	1211.1	0
110	65	1211.2	0
110	65	1211.3	0
110	65	1211.4	0
110	65	1211.5	0
110	65	1211.6	0
110	65	1211.7	0
110	65	1211.8	0
110	65	1211.9	0
110	65	1212	0
110	65	1212.1	0
110	65	1212.2	0
110	65	1212.3	0
110	65	1212.4	0
110	65	1212.5	0
110	65	1212.6	0
110	65	1212.7	0
110	65	1212.8	0
110	65	1212.9	0
110	65	1213	0
110	65	1213.1	0
110	65	1213.2	0
110	65	1213.3	0
110	65	1213.4	0
110	65	1213.5	0
110	65	1213.6	0
110	65	1213.7	0
110	65	1213.8	0
110	65	1213.9	0
110	65	1214	0
110	65	1214.1	0
110	65	1214.2	0
110	65	1214.3	0
110	65	1214.4	0
110	65	1214.5	0
110	65	1214.6	0
110	65	1214.7	0
110	65	1214.8	0
110	65	1214.9	0
110	65	1215	0
110	65	1215.1	0
110	65	1215.2	0
110	65	1215.3	0
110	65	1215.4	0
110	65	1215.5	0
110	65	1215.6	0
110	65	1215.7	0
110	65	1215.8	0
110	65	1215.9	0
110	65	1216	0
110	65	1216.1	0
110	65	1216.2	0
110	65	1216.3	0
110	65	1216.4	0
110	65	1216.5	0
110	65	1216.6	0
110	65	1216.7	0
110	65	1216.8	0
110	65	1216.9	0
110	65	1217	0
110	65	1217.1	0
110	65	1217.2	0
110	65	1217.3	0
110	65	1217.4	0
110	65	1217.5	0
110	65	1217.6	0
110	65	1217.7	0
110	65	1217.8	0
110	65	1217.9	0
110	65	1218	0
110	65	1218.1	0
110	65	1218.2	0
110	65	1218.3	0
110	65	1218.4	0
110	65	1218.5	0
110	65	1218.6	0
110	65	1218.7	0
110	65	1218.8	0
110	65	1218.9	0
110	65	1219	0
110	65	1219.1	0
110	65	1219.2	0
110	65	1219.3	0
110	65	1219.4	0
110	65	1219.5	0
110	65	1219.6	0
110	65	1219.7	0
110	65	1219.8	0
110	65	1219.9	0
110	65	1220	0
110	65	1220.1	0
110	65	1220.2	0
110	65	1220.3	0
110	65	1220.4	0
110	65	1220.5	0
110	65	1220.6	0
110	65	1220.7	0
110	65	1220.8	0
110	65	1220.9	0
110	65	1221	0
110	65	1221.1	0
110	65	1221.2	0
110	65	1221.3	0
110	65	1221.4	0
110	65	1221.5	0
110	65	1221.6	0
110	65	1221.7	0
110	65	1221.8	0
110	65	1221.9	0
110	65	1222	0
110	65	1222.1	0
110	65	1222.2	0
110	65	1222.3	0
110	65	1222.4	0
110	65	1222.5	0
110	65	1222.6	0
110	65	1222.7	0
110	65	1222.8	0
110	65	1222.9	0
110	65	1223	0
110	65	1223.1	0
110	65	1223.2	0
110	65	1223.3	0
110	65	1223.4	0
110	65	1223.5	0
110	65	1223.6	0
110	65	1223.7	0
110	65	1223.8	0
110	65	1223.9	0
110	65	1224	0
110	65	1224.1	0
110	65	1224.2	0
110	65	1224.3	0
110	65	1224.4	0
110	65	1224.5	0
110	65	1224.6	0
110	65	1224.7	0
110	65	1224.8	0
110	65	1224.9	0
110	65	1225	0
110	65	1225.1	0
110	65	1225.2	0
110	65	1225.3	0
110	65	1225.4	0
110	65	1225.5	0
110	65	1225.6	0
110	65	1225.7	0
110	65	1225.8	0
110	65	1225.9	0
110	65	1226	0
110	65	1226.1	0
110	65	1226.2	0
110	65	1226.3	0
110	65	1226.4	0
110	65	1226.5	0
110	65	1226.6	0
110	65	1226.7	0
110	65	1226.8	0
110	65	1226.9	0
110	65	1227	0
110	65	1227.1	0
110	65	1227.2	0
110	65	1227.3	0
110	65	1227.4	0
110	65	1227.5	0
110	65	1227.6	0
110	65	1227.7	0
110	65	1227.8	0
110	65	1227.9	0
110	65	1228	0
110	65	1228.1	0
110	65	1228.2	0
110	65	1228.3	0
110	65	1228.4	0
110	65	1228.5	0
110	65	1228.6	0
110	65	1228.7	0
110	65	1228.8	0
110	65	1228.9	0
110	65	1229	0
110	65	1229.1	0
110	65	1229.2	0
110	65	1229.3	0
110	65	1229.4	0
110	65	1229.5	0
110	65	1229.6	0
110	65	1229.7	0
110	65	1229.8	0
110	65	1229.9	0
110	65	1230	0
110	65	1230.1	0
110	65	1230.2	0
110	65	1230.3	0
110	65	1230.4	0
110	65	1230.5	0
110	65	1230.6	0
110	65	1230.7	0
110	65	1230.8	0
110	65	1230.9	0
110	65	1231	0
110	65	1231.1	0
110	65	1231.2	0
110	65	1231.3	0
110	65	1231.4	0
110	65	1231.5	0
110	65	1231.6	0
110	65	1231.7	0
110	65	1231.8	0
110	65	1231.9	0
110	65	1232	0
110	65	1232.1	0
110	65	1232.2	0
110	65	1232.3	0
110	65	1232.4	0
110	65	1232.5	0
110	65	1232.6	0
110	65	1232.7	0
110	65	1232.8	0
110	65	1232.9	0
110	65	1233	0
110	65	1233.1	0
110	65	1233.2	0
110	65	1233.3	0
110	65	1233.4	0
110	65	1233.5	0
110	65	1233.6	0
110	65	1233.7	0
110	65	1233.8	0
110	65	1233.9	0
110	65	1234	0
110	65	1234.1	0
110	65	1234.2	0
110	65	1234.3	0
110	65	1234.4	0
110	65	1234.5	0
110	65	1234.6	0
110	65	1234.7	0
110	65	1234.8	0
110	65	1234.9	0
110	65	1235	0
110	65	1235.1	0
110	65	1235.2	0
110	65	1235.3	0
110	65	1235.4	0
110	65	1235.5	0
110	65	1235.6	0
110	65	1235.7	0
110	65	1235.8	0
110	65	1235.9	0
110	65	1236	0
110	65	1236.1	0
110	65	1236.2	0
110	65	1236.3	0
110	65	1236.4	0
110	65	1236.5	0
110	65	1236.6	0
110	65	1236.7	0
110	65	1236.8	0
110	65	1236.9	0
110	65	1237	0
110	65	1237.1	0
110	65	1237.2	0
110	65	1237.3	0
110	65	1237.4	0
110	65	1237.5	0
110	65	1237.6	0
110	65	1237.7	0
110	65	1237.8	0
110	65	1237.9	0
110	65	1238	0
110	65	1238.1	0
110	65	1238.2	0
110	65	1238.3	0
110	65	1238.4	0
110	65	1238.5	0
110	65	1238.6	0
110	65	1238.7	0
110	65	1238.8	0
110	65	1238.9	0
110	65	1239	0
110	65	1239.1	0
110	65	1239.2	0
110	65	1239.3	0
110	65	1239.4	0
110	65	1239.5	0
110	65	1239.6	0
110	65	1239.7	0
110	65	1239.8	0
110	65	1239.9	0
110	65	1240	0
110	65	1240.1	0
110	65	1240.2	0
110	65	1240.3	0
110	65	1240.4	0
110	65	1240.5	0
110	65	1240.6	0
110	65	1240.7	0
110	65	1240.8	0
110	65	1240.9	0
110	65	1241	0
110	65	1241.1	0
110	65	1241.2	0
110	65	1241.3	0
110	65	1241.4	0
110	65	1241.5	0
110	65	1241.6	0
110	65	1241.7	0
110	65	1241.8	0
110	65	1241.9	0
110	65	1242	0
110	65	1242.1	0
110	65	1242.2	0
110	65	1242.3	0
110	65	1242.4	0
110	65	1242.5	0
110	65	1242.6	0
110	65	1242.7	0
110	65	1242.8	0
110	65	1242.9	0
110	65	1243	0
110	65	1243.1	0
110	65	1243.2	0
110	65	1243.3	0
110	65	1243.4	0
110	65	1243.5	0
110	65	1243.6	0
110	65	1243.7	0
110	65	1243.8	0
110	65	1243.9	0
110	65	1244	0
110	65	1244.1	0
110	65	1244.2	0
110	65	1244.3	0
110	65	1244.4	0
110	65	1244.5	0
110	65	1244.6	0
110	65	1244.7	0
110	65	1244.8	0
110	65	1244.9	0
110	65	1245	0
110	65	1245.1	0
110	65	1245.2	0
110	65	1245.3	0
110	65	1245.4	0
110	65	1245.5	0
110	65	1245.6	0
110	65	1245.7	0
110	65	1245.8	0
110	65	1245.9	0
110	65	1246	0
110	65	1246.1	0
110	65	1246.2	0
110	65	1246.3	0
110	65	1246.4	0
110	65	1246.5	0
110	65	1246.6	0
110	65	1246.7	0
110	65	1246.8	0
110	65	1246.9	0
110	65	1247	0
110	65	1247.1	0
110	65	1247.2	0
110	65	1247.3	0
110	65	1247.4	0
110	65	1247.5	0
110	65	1247.6	0
110	65	1247.7	0
110	65	1247.8	0
110	65	1247.9	0
110	65	1248	0
110	65	1248.1	0
110	65	1248.2	0
110	65	1248.3	0
110	65	1248.4	0
110	65	1248.5	0
110	65	1248.6	0
110	65	1248.7	0
110	65	1248.8	0
110	65	1248.9	0
110	65	1249	0
110	65	1249.1	0
110	65	1249.2	0
110	65	1249.3	0
110	65	1249.4	0
110	65	1249.5	0
110	65	1249.6	0
110	65	1249.7	0
110	65	1249.8	0
110	65	1249.9	0
110	65	1250	0
110	65	1250.1	0
110	65	1250.2	0
110	65	1250.3	0
110	65	1250.4	0
110	65	1250.5	0
110	65	1250.6	0
110	65	1250.7	0
110	65	1250.8	0
110	65	1250.9	0
110	65	1251	0
110	65	1251.1	0
110	65	1251.2	0
110	65	1251.3	0
110	65	1251.4	0
110	65	1251.5	0
110	65	1251.6	0
110	65	1251.7	0
110	65	1251.8	0
110	65	1251.9	0
110	65	1252	0
110	65	1252.1	0
110	65	1252.2	0
110	65	1252.3	0
110	65	1252.4	0
110	65	1252.5	0
110	65	1252.6	0
110	65	1252.7	0
110	65	1252.8	0
110	65	1252.9	0
110	65	1253	0
110	65	1253.1	0
110	65	1253.2	0
110	65	1253.3	0
110	65	1253.4	0
110	65	1253.5	0
110	65	1253.6	0
110	65	1253.7	0
110	65	1253.8	0
110	65	1253.9	0
110	65	1254	0
110	65	1254.1	0
110	65	1254.2	0
110	65	1254.3	0
110	65	1254.4	0
110	65	1254.5	0
110	65	1254.6	0
110	65	1254.7	0
110	65	1254.8	0
110	65	1254.9	0
110	65	1255	0
110	65	1255.1	0
110	65	1255.2	0
110	65	1255.3	0
110	65	1255.4	0
110	65	1255.5	0
110	65	1255.6	0
110	65	1255.7	0
110	65	1255.8	0
110	65	1255.9	0
110	65	1256	0
110	65	1256.1	0
110	65	1256.2	0
110	65	1256.3	0
110	65	1256.4	0
110	65	1256.5	0
110	65	1256.6	0
110	65	1256.7	0
110	65	1256.8	0
110	65	1256.9	0
110	65	1257	0
110	65	1257.1	0
110	65	1257.2	0
110	65	1257.3	0
110	65	1257.4	0
110	65	1257.5	0
110	65	1257.6	0
110	65	1257.65289212673	0

