version 3
run General-0-20230420-14:11:33-58960
attr configname General
attr datetime 20230420-14:11:33
attr datetimef 20230420-141133
attr experiment General
attr inifile omnetpp.ini
attr iterationvars ""
attr iterationvarsd ""
attr iterationvarsf ""
attr measurement ""
attr network loraSimulation.LoRaNetwork
attr processid 58960
attr repetition 0
attr replication #0
attr resultdir results
attr runnumber 0
attr seedset 0
config image-path ../../../../Downloads/omnetpp-6.0.1/samples/inet4.4/images
config network loraSimulation.LoRaNetwork
config **.maxTransmissionDuration 4s
config **.energyDetection -110dBm
config **.numberOfNodes 4
config **.numberOfGateways 1
config **.loRaNodes[*].LoRaNic.radio.energyConsumer.typename LoRaEnergyConsumer
config **.loRaNodes[*].**.energySourceModule "\"^.IdealEpEnergyStorage\""
config **.loRaNodes[*].LoRaNic.radio.energyConsumer.configFile "xmldoc(\"energyConsumptionParameters.xml\")"
config **.sigma 3.57
config **.constraintAreaMinX 0m
config **.constraintAreaMinY 0m
config **.constraintAreaMinZ 0m
config **.constraintAreaMaxZ 0m
config LoRaNetwork.**.radio.separateTransmissionParts false
config LoRaNetwork.**.radio.separateReceptionParts false
config **.ipv4Delayer.config "xmldoc(\"cloudDelays.xml\")"
config **.radio.radioMediumModule "\"LoRaMedium\""
config **.LoRaMedium.pathLossType "\"LoRaLogNormalShadowing\""
config **.minInterferenceTime 0s
config **.displayAddresses false
config **.LoRaMedium.mediumLimitCacheType "\"LoRaMediumCache\""
config **.LoRaMedium.rangeFilter "\"communicationRange\""
config **.LoRaMedium.neighborCacheType "\"LoRaNeighborCache\""
config **.LoRaMedium.neighborCache.range 546m
config **.LoRaMedium.neighborCache.refillPeriod 3000s

par LoRaNetwork.loRaNodes[0].interfaceTable typename "\"inet.networklayer.common.InterfaceTable\""
par LoRaNetwork.loRaNodes[0].interfaceTable displayAddresses false
par LoRaNetwork.loRaNodes[0].mobility typename "\"inet.mobility.static.StationaryMobility\""
par LoRaNetwork.loRaNodes[0].mobility subjectModule "\"^\""
par LoRaNetwork.loRaNodes[0].mobility coordinateSystemModule "\"\""
par LoRaNetwork.loRaNodes[0].mobility displayStringTextFormat "\"p: %p\\nv: %v\""
attr mutable ""
par LoRaNetwork.loRaNodes[0].mobility updateDisplayString true
par LoRaNetwork.loRaNodes[0].mobility constraintAreaMinX 0m
attr unit m
par LoRaNetwork.loRaNodes[0].mobility constraintAreaMinY 0m
attr unit m
par LoRaNetwork.loRaNodes[0].mobility constraintAreaMinZ 0m
attr unit m
par LoRaNetwork.loRaNodes[0].mobility constraintAreaMaxX "inf m"
attr unit m
par LoRaNetwork.loRaNodes[0].mobility constraintAreaMaxY "inf m"
attr unit m
par LoRaNetwork.loRaNodes[0].mobility constraintAreaMaxZ 0m
attr unit m
par LoRaNetwork.loRaNodes[0].mobility initialX "inf m"
attr unit m
par LoRaNetwork.loRaNodes[0].mobility initialY "inf m"
attr unit m
par LoRaNetwork.loRaNodes[0].mobility initialZ 0m
attr unit m
par LoRaNetwork.loRaNodes[0].mobility initialLatitude "nan deg"
attr unit deg
par LoRaNetwork.loRaNodes[0].mobility initialLongitude "nan deg"
attr unit deg
par LoRaNetwork.loRaNodes[0].mobility initialAltitude 0m
attr unit m
par LoRaNetwork.loRaNodes[0].mobility initialHeading 0deg
attr unit deg
par LoRaNetwork.loRaNodes[0].mobility initialElevation 0deg
attr unit deg
par LoRaNetwork.loRaNodes[0].mobility initialBank 0deg
attr unit deg
par LoRaNetwork.loRaNodes[0].mobility initFromDisplayString true
par LoRaNetwork.loRaNodes[0].mobility updateFromDisplayString true
par LoRaNetwork.loRaNodes[0].LoRaNic.radioIn.channel typename "\"ned.IdealChannel\""
par LoRaNetwork.loRaNodes[0].LoRaNic.mac.upperLayerOut.channel typename "\"ned.IdealChannel\""
par LoRaNetwork.loRaNodes[0].LoRaNic.upperLayerIn.channel typename "\"ned.IdealChannel\""
par LoRaNetwork.loRaNodes[0].LoRaNic.queue typename "\"inet.queueing.queue.DropTailQueue\""
par LoRaNetwork.loRaNodes[0].LoRaNic.queue displayStringTextFormat "\"contains %p pk (%l) pushed %u\\npulled %o removed %r dropped %d\""
par LoRaNetwork.loRaNodes[0].LoRaNic.queue packetCapacity -1
par LoRaNetwork.loRaNodes[0].LoRaNic.queue dataCapacity -1b
attr unit b
par LoRaNetwork.loRaNodes[0].LoRaNic.queue dropperClass "\"inet::queueing::PacketAtCollectionEndDropper\""
par LoRaNetwork.loRaNodes[0].LoRaNic.queue comparatorClass "\"\""
par LoRaNetwork.loRaNodes[0].LoRaNic.queue bufferModule "\"\""
scalar LoRaNetwork.loRaNodes[0].LoRaNic.queue queueLength:last nan
attr autoWarmupFilter false
attr interpolationmode sample-hold
attr recordingmode last
attr source "warmup(atomic(constant0(packetPushEnded) + count(packetPushStarted) - count(packetPulled) - count(packetRemoved) - count(packetDropped)))"
attr title "queue length, last"
attr unit pk
scalar LoRaNetwork.loRaNodes[0].LoRaNic.queue queueLength:max nan
attr autoWarmupFilter false
attr interpolationmode sample-hold
attr recordingmode max
attr source "warmup(atomic(constant0(packetPushEnded) + count(packetPushStarted) - count(packetPulled) - count(packetRemoved) - count(packetDropped)))"
attr title "queue length, max"
attr unit pk
scalar LoRaNetwork.loRaNodes[0].LoRaNic.queue queueLength:timeavg nan
attr autoWarmupFilter false
attr interpolationmode sample-hold
attr recordingmode timeavg
attr source "warmup(atomic(constant0(packetPushEnded) + count(packetPushStarted) - count(packetPulled) - count(packetRemoved) - count(packetDropped)))"
attr title "queue length, timeavg"
attr unit pk
scalar LoRaNetwork.loRaNodes[0].LoRaNic.queue queueBitLength:last nan
attr autoWarmupFilter false
attr interpolationmode sample-hold
attr recordingmode last
attr source "warmup(atomic(constant0(packetPushEnded) + sum(packetLength(packetPushStarted)) - sum(packetLength(packetPulled)) - sum(packetLength(packetRemoved)) - sum(packetLength(packetDropped))))"
attr title "queue bit length, last"
attr unit b
scalar LoRaNetwork.loRaNodes[0].LoRaNic.queue queueBitLength:max nan
attr autoWarmupFilter false
attr interpolationmode sample-hold
attr recordingmode max
attr source "warmup(atomic(constant0(packetPushEnded) + sum(packetLength(packetPushStarted)) - sum(packetLength(packetPulled)) - sum(packetLength(packetRemoved)) - sum(packetLength(packetDropped))))"
attr title "queue bit length, max"
attr unit b
scalar LoRaNetwork.loRaNodes[0].LoRaNic.queue queueBitLength:timeavg nan
attr autoWarmupFilter false
attr interpolationmode sample-hold
attr recordingmode timeavg
attr source "warmup(atomic(constant0(packetPushEnded) + sum(packetLength(packetPushStarted)) - sum(packetLength(packetPulled)) - sum(packetLength(packetRemoved)) - sum(packetLength(packetDropped))))"
attr title "queue bit length, timeavg"
attr unit b
statistic LoRaNetwork.loRaNodes[0].LoRaNic.queue queueingTime:histogram
field count 0
field mean nan
field stddev nan
field min nan
field max nan
field sum 0
field sqrsum 0
attr interpolationmode none
attr recordingmode histogram
attr source queueingTime(packetPulled)
attr title "queueing times"
attr unit s
bin	-inf	0
bin	0	0
bin	1	0
scalar LoRaNetwork.loRaNodes[0].LoRaNic.queue outgoingPackets:count 0
attr recordingmode count
attr source packetPulled
attr title "outgoing packets, count"
attr unit pk
scalar LoRaNetwork.loRaNodes[0].LoRaNic.queue outgoingPacketLengths:sum 0
attr interpolationmode none
attr recordingmode sum
attr source packetLength(packetPulled)
attr title "outgoing packet lengths, sum"
attr unit b
statistic LoRaNetwork.loRaNodes[0].LoRaNic.queue outgoingPacketLengths:histogram
field count 0
field mean nan
field stddev nan
field min nan
field max nan
field sum 0
field sqrsum 0
attr interpolationmode none
attr recordingmode histogram
attr source packetLength(packetPulled)
attr title "outgoing packet lengths"
attr unit b
bin	-inf	0
bin	0	0
bin	1	0
statistic LoRaNetwork.loRaNodes[0].LoRaNic.queue flowQueueingTime:histogram
field count 0
field mean nan
field stddev nan
field min nan
field max nan
field sum 0
field sqrsum 0
attr interpolationmode none
attr recordingmode histogram
attr source queueingTime(demuxFlow(packetPulled))
attr title "flow queueing times"
attr unit s
bin	-inf	0
bin	0	0
bin	1	0
scalar LoRaNetwork.loRaNodes[0].LoRaNic.queue incomingPackets:count 0
attr recordingmode count
attr source packetPushStarted
attr title "incoming packets, count"
attr unit pk
scalar LoRaNetwork.loRaNodes[0].LoRaNic.queue incomingPacketLengths:sum 0
attr interpolationmode none
attr recordingmode sum
attr source packetLength(packetPushStarted)
attr title "incoming packet lengths, sum"
attr unit b
statistic LoRaNetwork.loRaNodes[0].LoRaNic.queue incomingPacketLengths:histogram
field count 0
field mean nan
field stddev nan
field min nan
field max nan
field sum 0
field sqrsum 0
attr interpolationmode none
attr recordingmode histogram
attr source packetLength(packetPushStarted)
attr title "incoming packet lengths"
attr unit b
bin	-inf	0
bin	0	0
bin	1	0
scalar LoRaNetwork.loRaNodes[0].LoRaNic.queue droppedPacketsQueueOverflow:count 0
attr interpolationmode none
attr recordingmode count
attr source packetDropReasonIsQueueOverflow(packetDropped)
attr title "dropped packets: queue overflow, count"
attr unit pk
scalar LoRaNetwork.loRaNodes[0].LoRaNic.queue droppedPacketLengthsQueueOverflow:sum 0
attr interpolationmode none
attr recordingmode sum
attr source packetLength(packetDropReasonIsQueueOverflow(packetDropped))
attr title "dropped packet lengths: queue overflow, sum"
attr unit b
par LoRaNetwork.loRaNodes[0].LoRaNic.mac typename "\"flora.LoRa.LoRaMac\""
par LoRaNetwork.loRaNodes[0].LoRaNic.mac interfaceTableModule "\"LoRaNetwork.loRaNodes[0].interfaceTable\""
par LoRaNetwork.loRaNodes[0].LoRaNic.mac radioModule "\"^.radio\""
par LoRaNetwork.loRaNodes[0].LoRaNic.mac address "\"0A-AA-00-00-00-01\""
attr mutable ""
par LoRaNetwork.loRaNodes[0].LoRaNic.mac fcsMode "\"declared\""
attr enum declared,computed
par LoRaNetwork.loRaNodes[0].LoRaNic.mac useAck true
par LoRaNetwork.loRaNodes[0].LoRaNic.mac bitrate 250bps
attr unit bps
par LoRaNetwork.loRaNodes[0].LoRaNic.mac headerLength 17B
attr unit B
par LoRaNetwork.loRaNodes[0].LoRaNic.mac ackLength 14B
attr unit B
par LoRaNetwork.loRaNodes[0].LoRaNic.mac sifsTime 1e-05s
attr unit s
par LoRaNetwork.loRaNodes[0].LoRaNic.mac slotTime 2e-05s
attr unit s
par LoRaNetwork.loRaNodes[0].LoRaNic.mac difsTime 5e-05s
attr unit s
par LoRaNetwork.loRaNodes[0].LoRaNic.mac ackTimeout 0.44803s
attr unit s
par LoRaNetwork.loRaNodes[0].LoRaNic.mac mtu 1500
par LoRaNetwork.loRaNodes[0].LoRaNic.mac cwMin 31
par LoRaNetwork.loRaNodes[0].LoRaNic.mac cwMax 1023
par LoRaNetwork.loRaNodes[0].LoRaNic.mac cwMulticast 31
par LoRaNetwork.loRaNodes[0].LoRaNic.mac retryLimit 7
scalar LoRaNetwork.loRaNodes[0].LoRaNic.mac numRetry 0
scalar LoRaNetwork.loRaNodes[0].LoRaNic.mac numSentWithoutRetry 0
scalar LoRaNetwork.loRaNodes[0].LoRaNic.mac numGivenUp 0
scalar LoRaNetwork.loRaNodes[0].LoRaNic.mac numSent 0
scalar LoRaNetwork.loRaNodes[0].LoRaNic.mac numReceived 0
scalar LoRaNetwork.loRaNodes[0].LoRaNic.mac numSentBroadcast 0
scalar LoRaNetwork.loRaNodes[0].LoRaNic.mac numReceivedBroadcast 0
scalar LoRaNetwork.loRaNodes[0].LoRaNic.mac packetDropIncorrectlyReceived:count 0
attr interpolationmode none
attr recordingmode count
attr source packetDropReasonIsIncorrectlyReceived(packetDropped)
attr title "packet drop: incorrectly received, count"
scalar LoRaNetwork.loRaNodes[0].LoRaNic.mac packetDropIncorrectlyReceived:sum(packetBytes) 0
attr interpolationmode none
attr recordingmode sum(packetBytes)
attr source packetDropReasonIsIncorrectlyReceived(packetDropped)
attr title "packet drop: incorrectly received, sum(packetBytes)"
scalar LoRaNetwork.loRaNodes[0].LoRaNic.mac packetDropNotAddressedToUs:count 0
attr interpolationmode none
attr recordingmode count
attr source packetDropReasonIsNotAddressedToUs(packetDropped)
attr title "packet drop: not addressed to us, count"
scalar LoRaNetwork.loRaNodes[0].LoRaNic.mac packetDropNotAddressedToUs:sum(packetBytes) 0
attr interpolationmode none
attr recordingmode sum(packetBytes)
attr source packetDropReasonIsNotAddressedToUs(packetDropped)
attr title "packet drop: not addressed to us, sum(packetBytes)"
scalar LoRaNetwork.loRaNodes[0].LoRaNic.mac packetDropQueueOverflow:count 0
attr interpolationmode none
attr recordingmode count
attr source packetDropReasonIsQueueOverflow(packetDropped)
attr title "packet drop: queue overflow, count"
scalar LoRaNetwork.loRaNodes[0].LoRaNic.mac packetDropQueueOverflow:sum(packetBytes) 0
attr interpolationmode none
attr recordingmode sum(packetBytes)
attr source packetDropReasonIsQueueOverflow(packetDropped)
attr title "packet drop: queue overflow, sum(packetBytes)"
scalar LoRaNetwork.loRaNodes[0].LoRaNic.mac packetDropRetryLimitReached:count 0
attr interpolationmode none
attr recordingmode count
attr source packetDropReasonIsRetryLimitReached(packetDropped)
attr title "packet drop: retry limit reached, count"
scalar LoRaNetwork.loRaNodes[0].LoRaNic.mac packetDropRetryLimitReached:sum(packetBytes) 0
attr interpolationmode none
attr recordingmode sum(packetBytes)
attr source packetDropReasonIsRetryLimitReached(packetDropped)
attr title "packet drop: retry limit reached, sum(packetBytes)"
scalar LoRaNetwork.loRaNodes[0].LoRaNic.mac linkBroken:count 0
attr interpolationmode none
attr recordingmode count
attr source linkBroken
attr title "link break, count"
par LoRaNetwork.loRaNodes[0].LoRaNic.radio.antenna typename "\"inet.physicallayer.wireless.common.antenna.IsotropicAntenna\""
par LoRaNetwork.loRaNodes[0].LoRaNic.radio.antenna mobilityModule "\"^.^.^.mobility\""
par LoRaNetwork.loRaNodes[0].LoRaNic.radio.antenna numAntennas 1
par LoRaNetwork.loRaNodes[0].LoRaNic.radio.transmitter typename "\"flora.LoRaPhy.LoRaTransmitter\""
par LoRaNetwork.loRaNodes[0].LoRaNic.radio.transmitter preambleDuration 0.001s
attr unit s
par LoRaNetwork.loRaNodes[0].LoRaNic.radio.transmitter headerLength 0b
attr unit b
par LoRaNetwork.loRaNodes[0].LoRaNic.radio.transmitter bitrate 250000bps
attr unit bps
par LoRaNetwork.loRaNodes[0].LoRaNic.radio.transmitter power 0.025118W
attr unit W
par LoRaNetwork.loRaNodes[0].LoRaNic.radio.transmitter centerFrequency 8.68e+08Hz
attr unit Hz
par LoRaNetwork.loRaNodes[0].LoRaNic.radio.transmitter bandwidth 250000Hz
attr unit Hz
par LoRaNetwork.loRaNodes[0].LoRaNic.radio.transmitter modulation "\"LoRaModulation\""
scalar LoRaNetwork.loRaNodes[0].LoRaNic.radio.transmitter LoRaTransmissionCreated:count 0
attr recordingmode count
attr source LoRaTransmissionCreated
par LoRaNetwork.loRaNodes[0].LoRaNic.radio.receiver typename "\"flora.LoRaPhy.LoRaReceiver\""
par LoRaNetwork.loRaNodes[0].LoRaNic.radio.receiver snirThreshold -8dB
attr unit dB
par LoRaNetwork.loRaNodes[0].LoRaNic.radio.receiver snirThresholdMode "\"min\""
attr unit min,mean
par LoRaNetwork.loRaNodes[0].LoRaNic.radio.receiver energyDetection -110dBm
attr unit dBm
par LoRaNetwork.loRaNodes[0].LoRaNic.radio.receiver sensitivity -137dBm
attr unit dBm
par LoRaNetwork.loRaNodes[0].LoRaNic.radio.receiver centerFrequency 8.68e+08Hz
attr unit Hz
par LoRaNetwork.loRaNodes[0].LoRaNic.radio.receiver bandwidth 250000Hz
attr unit Hz
par LoRaNetwork.loRaNodes[0].LoRaNic.radio.receiver modulation "\"BPSK\""
par LoRaNetwork.loRaNodes[0].LoRaNic.radio.receiver alohaChannelModel false
scalar LoRaNetwork.loRaNodes[0].LoRaNic.radio.receiver numCollisions 0
scalar LoRaNetwork.loRaNodes[0].LoRaNic.radio.receiver rcvBelowSensitivity 0
scalar LoRaNetwork.loRaNodes[0].LoRaNic.radio.receiver LoRaReceptionCollision:count 0
attr recordingmode count
attr source LoRaReceptionCollision
par LoRaNetwork.loRaNodes[0].LoRaNic.radio.energyConsumer typename "\"flora.LoRaEnergyModules.LoRaEnergyConsumer\""
par LoRaNetwork.loRaNodes[0].LoRaNic.radio.energyConsumer energySourceModule "\"^.IdealEpEnergyStorage\""
par LoRaNetwork.loRaNodes[0].LoRaNic.radio.energyConsumer offPowerConsumption 0W
attr unit W
par LoRaNetwork.loRaNodes[0].LoRaNic.radio.energyConsumer sleepPowerConsumption 0.001W
attr unit W
par LoRaNetwork.loRaNodes[0].LoRaNic.radio.energyConsumer switchingPowerConsumption 0.001W
attr unit W
par LoRaNetwork.loRaNodes[0].LoRaNic.radio.energyConsumer receiverIdlePowerConsumption 0.002W
attr unit W
par LoRaNetwork.loRaNodes[0].LoRaNic.radio.energyConsumer receiverBusyPowerConsumption 0.005W
attr unit W
par LoRaNetwork.loRaNodes[0].LoRaNic.radio.energyConsumer receiverReceivingPowerConsumption 0.01W
attr unit W
par LoRaNetwork.loRaNodes[0].LoRaNic.radio.energyConsumer receiverReceivingPreamblePowerConsumption 0.01W
attr unit W
par LoRaNetwork.loRaNodes[0].LoRaNic.radio.energyConsumer receiverReceivingHeaderPowerConsumption 0.01W
attr unit W
par LoRaNetwork.loRaNodes[0].LoRaNic.radio.energyConsumer receiverReceivingDataPowerConsumption 0.01W
attr unit W
par LoRaNetwork.loRaNodes[0].LoRaNic.radio.energyConsumer transmitterIdlePowerConsumption 0.002W
attr unit W
par LoRaNetwork.loRaNodes[0].LoRaNic.radio.energyConsumer transmitterTransmittingPowerConsumption 0.1W
attr unit W
par LoRaNetwork.loRaNodes[0].LoRaNic.radio.energyConsumer transmitterTransmittingPreamblePowerConsumption 0.1W
attr unit W
par LoRaNetwork.loRaNodes[0].LoRaNic.radio.energyConsumer transmitterTransmittingHeaderPowerConsumption 0.1W
attr unit W
par LoRaNetwork.loRaNodes[0].LoRaNic.radio.energyConsumer transmitterTransmittingDataPowerConsumption 0.1W
attr unit W
par LoRaNetwork.loRaNodes[0].LoRaNic.radio.energyConsumer configFile "<root>...</root> at /Users/hiro/LoRaPos/simulation/flora_simulation/loraSimulation//energyConsumptionParameters.xml:2"
scalar LoRaNetwork.loRaNodes[0].LoRaNic.radio.energyConsumer totalEnergyConsumed 0
par LoRaNetwork.loRaNodes[0].LoRaNic.radio.IdealEpEnergyStorage typename "\"inet.power.storage.IdealEpEnergyStorage\""
scalar LoRaNetwork.loRaNodes[0].LoRaNic.radio.IdealEpEnergyStorage residualEnergyCapacity:last nan
attr interpolationmode linear
attr recordingmode last
attr source residualEnergyCapacityChanged
attr title "Residual energy capacity, last"
par LoRaNetwork.loRaNodes[0].LoRaNic.radio typename "\"flora.LoRa.LoRaRadio\""
par LoRaNetwork.loRaNodes[0].LoRaNic.radio radioMediumModule "\"LoRaMedium\""
par LoRaNetwork.loRaNodes[0].LoRaNic.radio energySourceModule "\"^.IdealEpEnergyStorage\""
par LoRaNetwork.loRaNodes[0].LoRaNic.radio initialRadioMode "\"off\""
attr enum off,sleep,receiver,transmitter,transceiver
par LoRaNetwork.loRaNodes[0].LoRaNic.radio switchingTimes "\"ms 0 0 0 0 0 0 0 0 0 0 0 0 0 0 0 0 0 0 0 0 0 0 0 0 0\""
par LoRaNetwork.loRaNodes[0].LoRaNic.radio sendRawBytes false
par LoRaNetwork.loRaNodes[0].LoRaNic.radio separateTransmissionParts false
par LoRaNetwork.loRaNodes[0].LoRaNic.radio separateReceptionParts false
par LoRaNetwork.loRaNodes[0].LoRaNic.radio displayCommunicationRange false
par LoRaNetwork.loRaNodes[0].LoRaNic.radio displayInterferenceRange false
par LoRaNetwork.loRaNodes[0].LoRaNic.radio centerFrequency 8.68e+08Hz
attr unit Hz
par LoRaNetwork.loRaNodes[0].LoRaNic.radio bandwidth 250000Hz
attr unit Hz
par LoRaNetwork.loRaNodes[0].LoRaNic.radio iAmGateway false
scalar LoRaNetwork.loRaNodes[0].LoRaNic.radio radioMode:count 3
attr interpolationmode sample-hold
attr recordingmode count
attr source radioModeChanged
attr title "Radio mode, count"
scalar LoRaNetwork.loRaNodes[0].LoRaNic.radio receptionState:count 0
attr interpolationmode sample-hold
attr recordingmode count
attr source receptionStateChanged
attr title "Radio reception state, count"
scalar LoRaNetwork.loRaNodes[0].LoRaNic.radio transmissionState:count 0
attr interpolationmode sample-hold
attr recordingmode count
attr source transmissionStateChanged
attr title "Radio transmission state, count"
statistic LoRaNetwork.loRaNodes[0].LoRaNic.radio minSnir:histogram
field count 0
field mean nan
field stddev nan
field min nan
field max nan
field sum 0
field sqrsum 0
attr recordingmode histogram
attr source minimumSnir(packetSentToUpper)
attr title "Min SNIR"
bin	-inf	0
bin	0	0
bin	1	0
statistic LoRaNetwork.loRaNodes[0].LoRaNic.radio packetErrorRate:histogram
field count 0
field mean nan
field stddev nan
field min nan
field max nan
field sum 0
field sqrsum 0
attr recordingmode histogram
attr source packetErrorRate(packetSentToUpper)
attr title "Packet error rate"
bin	-inf	0
bin	0	0
bin	1	0
statistic LoRaNetwork.loRaNodes[0].LoRaNic.radio bitErrorRate:histogram
field count 0
field mean nan
field stddev nan
field min nan
field max nan
field sum 0
field sqrsum 0
attr recordingmode histogram
attr source bitErrorRate(packetSentToUpper)
attr title "Bit error rate"
bin	-inf	0
bin	0	0
bin	1	0
statistic LoRaNetwork.loRaNodes[0].LoRaNic.radio symbolErrorRate:histogram
field count 0
field mean nan
field stddev nan
field min nan
field max nan
field sum 0
field sqrsum 0
attr recordingmode histogram
attr source symbolErrorRate(packetSentToUpper)
attr title "Symbol error rate"
bin	-inf	0
bin	0	0
bin	1	0
par LoRaNetwork.loRaNodes[0].LoRaNic typename "\"flora.LoRa.LoRaNic\""
par LoRaNetwork.loRaNodes[0].LoRaNic displayStringTextFormat "\"%a (%i)\\n%m\""
par LoRaNetwork.loRaNodes[0].LoRaNic recordPcap false
par LoRaNetwork.loRaNodes[0].LoRaNic numPcapRecorders 0
par LoRaNetwork.loRaNodes[0].LoRaNic interfaceTableModule "\"LoRaNetwork.loRaNodes[0].interfaceTable\""
par LoRaNetwork.loRaNodes[0].LoRaNic energySourceModule "\"^.IdealEpEnergyStorage\""
par LoRaNetwork.loRaNodes[0].LoRaNic protocol "\"\""
scalar LoRaNetwork.loRaNodes[0].LoRaNic packetDropInterfaceDown:count 0
attr interpolationmode none
attr recordingmode count
attr source packetDropReasonIsInterfaceDown(packetDropped)
attr title "packet drops: interface down, count"
scalar LoRaNetwork.loRaNodes[0].LoRaNic packetDropInterfaceDown:sum(packetBytes) 0
attr interpolationmode none
attr recordingmode sum(packetBytes)
attr source packetDropReasonIsInterfaceDown(packetDropped)
attr title "packet drops: interface down, sum(packetBytes)"
scalar LoRaNetwork.loRaNodes[0].LoRaNic packetDropNoCarrier:count 0
attr interpolationmode none
attr recordingmode count
attr source packetDropReasonIsNoCarrier(packetDropped)
attr title "packet drops: no carrier, count"
scalar LoRaNetwork.loRaNodes[0].LoRaNic packetDropNoCarrier:sum(packetBytes) 0
attr interpolationmode none
attr recordingmode sum(packetBytes)
attr source packetDropReasonIsNoCarrier(packetDropped)
attr title "packet drops: no carrier, sum(packetBytes)"
par LoRaNetwork.loRaNodes[0] typename "\"flora.LoraNode.LoRaNode\""
par LoRaNetwork.loRaNodes[0] numApps 0
par LoRaNetwork.loRaNodes[0] deploymentType "\"\""
par LoRaNetwork.loRaNodes[0] maxGatewayDistance 320
par LoRaNetwork.loRaNodes[0] gatewayX 320
par LoRaNetwork.loRaNodes[0] gatewayY 320
par LoRaNetwork.loRaNodes[1].interfaceTable typename "\"inet.networklayer.common.InterfaceTable\""
par LoRaNetwork.loRaNodes[1].interfaceTable displayAddresses false
par LoRaNetwork.loRaNodes[1].mobility typename "\"inet.mobility.static.StationaryMobility\""
par LoRaNetwork.loRaNodes[1].mobility subjectModule "\"^\""
par LoRaNetwork.loRaNodes[1].mobility coordinateSystemModule "\"\""
par LoRaNetwork.loRaNodes[1].mobility displayStringTextFormat "\"p: %p\\nv: %v\""
attr mutable ""
par LoRaNetwork.loRaNodes[1].mobility updateDisplayString true
par LoRaNetwork.loRaNodes[1].mobility constraintAreaMinX 0m
attr unit m
par LoRaNetwork.loRaNodes[1].mobility constraintAreaMinY 0m
attr unit m
par LoRaNetwork.loRaNodes[1].mobility constraintAreaMinZ 0m
attr unit m
par LoRaNetwork.loRaNodes[1].mobility constraintAreaMaxX "inf m"
attr unit m
par LoRaNetwork.loRaNodes[1].mobility constraintAreaMaxY "inf m"
attr unit m
par LoRaNetwork.loRaNodes[1].mobility constraintAreaMaxZ 0m
attr unit m
par LoRaNetwork.loRaNodes[1].mobility initialX "inf m"
attr unit m
par LoRaNetwork.loRaNodes[1].mobility initialY "inf m"
attr unit m
par LoRaNetwork.loRaNodes[1].mobility initialZ 0m
attr unit m
par LoRaNetwork.loRaNodes[1].mobility initialLatitude "nan deg"
attr unit deg
par LoRaNetwork.loRaNodes[1].mobility initialLongitude "nan deg"
attr unit deg
par LoRaNetwork.loRaNodes[1].mobility initialAltitude 0m
attr unit m
par LoRaNetwork.loRaNodes[1].mobility initialHeading 0deg
attr unit deg
par LoRaNetwork.loRaNodes[1].mobility initialElevation 0deg
attr unit deg
par LoRaNetwork.loRaNodes[1].mobility initialBank 0deg
attr unit deg
par LoRaNetwork.loRaNodes[1].mobility initFromDisplayString true
par LoRaNetwork.loRaNodes[1].mobility updateFromDisplayString true
par LoRaNetwork.loRaNodes[1].LoRaNic.radioIn.channel typename "\"ned.IdealChannel\""
par LoRaNetwork.loRaNodes[1].LoRaNic.mac.upperLayerOut.channel typename "\"ned.IdealChannel\""
par LoRaNetwork.loRaNodes[1].LoRaNic.upperLayerIn.channel typename "\"ned.IdealChannel\""
par LoRaNetwork.loRaNodes[1].LoRaNic.queue typename "\"inet.queueing.queue.DropTailQueue\""
par LoRaNetwork.loRaNodes[1].LoRaNic.queue displayStringTextFormat "\"contains %p pk (%l) pushed %u\\npulled %o removed %r dropped %d\""
par LoRaNetwork.loRaNodes[1].LoRaNic.queue packetCapacity -1
par LoRaNetwork.loRaNodes[1].LoRaNic.queue dataCapacity -1b
attr unit b
par LoRaNetwork.loRaNodes[1].LoRaNic.queue dropperClass "\"inet::queueing::PacketAtCollectionEndDropper\""
par LoRaNetwork.loRaNodes[1].LoRaNic.queue comparatorClass "\"\""
par LoRaNetwork.loRaNodes[1].LoRaNic.queue bufferModule "\"\""
scalar LoRaNetwork.loRaNodes[1].LoRaNic.queue queueLength:last nan
attr autoWarmupFilter false
attr interpolationmode sample-hold
attr recordingmode last
attr source "warmup(atomic(constant0(packetPushEnded) + count(packetPushStarted) - count(packetPulled) - count(packetRemoved) - count(packetDropped)))"
attr title "queue length, last"
attr unit pk
scalar LoRaNetwork.loRaNodes[1].LoRaNic.queue queueLength:max nan
attr autoWarmupFilter false
attr interpolationmode sample-hold
attr recordingmode max
attr source "warmup(atomic(constant0(packetPushEnded) + count(packetPushStarted) - count(packetPulled) - count(packetRemoved) - count(packetDropped)))"
attr title "queue length, max"
attr unit pk
scalar LoRaNetwork.loRaNodes[1].LoRaNic.queue queueLength:timeavg nan
attr autoWarmupFilter false
attr interpolationmode sample-hold
attr recordingmode timeavg
attr source "warmup(atomic(constant0(packetPushEnded) + count(packetPushStarted) - count(packetPulled) - count(packetRemoved) - count(packetDropped)))"
attr title "queue length, timeavg"
attr unit pk
scalar LoRaNetwork.loRaNodes[1].LoRaNic.queue queueBitLength:last nan
attr autoWarmupFilter false
attr interpolationmode sample-hold
attr recordingmode last
attr source "warmup(atomic(constant0(packetPushEnded) + sum(packetLength(packetPushStarted)) - sum(packetLength(packetPulled)) - sum(packetLength(packetRemoved)) - sum(packetLength(packetDropped))))"
attr title "queue bit length, last"
attr unit b
scalar LoRaNetwork.loRaNodes[1].LoRaNic.queue queueBitLength:max nan
attr autoWarmupFilter false
attr interpolationmode sample-hold
attr recordingmode max
attr source "warmup(atomic(constant0(packetPushEnded) + sum(packetLength(packetPushStarted)) - sum(packetLength(packetPulled)) - sum(packetLength(packetRemoved)) - sum(packetLength(packetDropped))))"
attr title "queue bit length, max"
attr unit b
scalar LoRaNetwork.loRaNodes[1].LoRaNic.queue queueBitLength:timeavg nan
attr autoWarmupFilter false
attr interpolationmode sample-hold
attr recordingmode timeavg
attr source "warmup(atomic(constant0(packetPushEnded) + sum(packetLength(packetPushStarted)) - sum(packetLength(packetPulled)) - sum(packetLength(packetRemoved)) - sum(packetLength(packetDropped))))"
attr title "queue bit length, timeavg"
attr unit b
statistic LoRaNetwork.loRaNodes[1].LoRaNic.queue queueingTime:histogram
field count 0
field mean nan
field stddev nan
field min nan
field max nan
field sum 0
field sqrsum 0
attr interpolationmode none
attr recordingmode histogram
attr source queueingTime(packetPulled)
attr title "queueing times"
attr unit s
bin	-inf	0
bin	0	0
bin	1	0
scalar LoRaNetwork.loRaNodes[1].LoRaNic.queue outgoingPackets:count 0
attr recordingmode count
attr source packetPulled
attr title "outgoing packets, count"
attr unit pk
scalar LoRaNetwork.loRaNodes[1].LoRaNic.queue outgoingPacketLengths:sum 0
attr interpolationmode none
attr recordingmode sum
attr source packetLength(packetPulled)
attr title "outgoing packet lengths, sum"
attr unit b
statistic LoRaNetwork.loRaNodes[1].LoRaNic.queue outgoingPacketLengths:histogram
field count 0
field mean nan
field stddev nan
field min nan
field max nan
field sum 0
field sqrsum 0
attr interpolationmode none
attr recordingmode histogram
attr source packetLength(packetPulled)
attr title "outgoing packet lengths"
attr unit b
bin	-inf	0
bin	0	0
bin	1	0
statistic LoRaNetwork.loRaNodes[1].LoRaNic.queue flowQueueingTime:histogram
field count 0
field mean nan
field stddev nan
field min nan
field max nan
field sum 0
field sqrsum 0
attr interpolationmode none
attr recordingmode histogram
attr source queueingTime(demuxFlow(packetPulled))
attr title "flow queueing times"
attr unit s
bin	-inf	0
bin	0	0
bin	1	0
scalar LoRaNetwork.loRaNodes[1].LoRaNic.queue incomingPackets:count 0
attr recordingmode count
attr source packetPushStarted
attr title "incoming packets, count"
attr unit pk
scalar LoRaNetwork.loRaNodes[1].LoRaNic.queue incomingPacketLengths:sum 0
attr interpolationmode none
attr recordingmode sum
attr source packetLength(packetPushStarted)
attr title "incoming packet lengths, sum"
attr unit b
statistic LoRaNetwork.loRaNodes[1].LoRaNic.queue incomingPacketLengths:histogram
field count 0
field mean nan
field stddev nan
field min nan
field max nan
field sum 0
field sqrsum 0
attr interpolationmode none
attr recordingmode histogram
attr source packetLength(packetPushStarted)
attr title "incoming packet lengths"
attr unit b
bin	-inf	0
bin	0	0
bin	1	0
scalar LoRaNetwork.loRaNodes[1].LoRaNic.queue droppedPacketsQueueOverflow:count 0
attr interpolationmode none
attr recordingmode count
attr source packetDropReasonIsQueueOverflow(packetDropped)
attr title "dropped packets: queue overflow, count"
attr unit pk
scalar LoRaNetwork.loRaNodes[1].LoRaNic.queue droppedPacketLengthsQueueOverflow:sum 0
attr interpolationmode none
attr recordingmode sum
attr source packetLength(packetDropReasonIsQueueOverflow(packetDropped))
attr title "dropped packet lengths: queue overflow, sum"
attr unit b
par LoRaNetwork.loRaNodes[1].LoRaNic.mac typename "\"flora.LoRa.LoRaMac\""
par LoRaNetwork.loRaNodes[1].LoRaNic.mac interfaceTableModule "\"LoRaNetwork.loRaNodes[1].interfaceTable\""
par LoRaNetwork.loRaNodes[1].LoRaNic.mac radioModule "\"^.radio\""
par LoRaNetwork.loRaNodes[1].LoRaNic.mac address "\"0A-AA-00-00-00-02\""
attr mutable ""
par LoRaNetwork.loRaNodes[1].LoRaNic.mac fcsMode "\"declared\""
attr enum declared,computed
par LoRaNetwork.loRaNodes[1].LoRaNic.mac useAck true
par LoRaNetwork.loRaNodes[1].LoRaNic.mac bitrate 250bps
attr unit bps
par LoRaNetwork.loRaNodes[1].LoRaNic.mac headerLength 17B
attr unit B
par LoRaNetwork.loRaNodes[1].LoRaNic.mac ackLength 14B
attr unit B
par LoRaNetwork.loRaNodes[1].LoRaNic.mac sifsTime 1e-05s
attr unit s
par LoRaNetwork.loRaNodes[1].LoRaNic.mac slotTime 2e-05s
attr unit s
par LoRaNetwork.loRaNodes[1].LoRaNic.mac difsTime 5e-05s
attr unit s
par LoRaNetwork.loRaNodes[1].LoRaNic.mac ackTimeout 0.44803s
attr unit s
par LoRaNetwork.loRaNodes[1].LoRaNic.mac mtu 1500
par LoRaNetwork.loRaNodes[1].LoRaNic.mac cwMin 31
par LoRaNetwork.loRaNodes[1].LoRaNic.mac cwMax 1023
par LoRaNetwork.loRaNodes[1].LoRaNic.mac cwMulticast 31
par LoRaNetwork.loRaNodes[1].LoRaNic.mac retryLimit 7
scalar LoRaNetwork.loRaNodes[1].LoRaNic.mac numRetry 0
scalar LoRaNetwork.loRaNodes[1].LoRaNic.mac numSentWithoutRetry 0
scalar LoRaNetwork.loRaNodes[1].LoRaNic.mac numGivenUp 0
scalar LoRaNetwork.loRaNodes[1].LoRaNic.mac numSent 0
scalar LoRaNetwork.loRaNodes[1].LoRaNic.mac numReceived 0
scalar LoRaNetwork.loRaNodes[1].LoRaNic.mac numSentBroadcast 0
scalar LoRaNetwork.loRaNodes[1].LoRaNic.mac numReceivedBroadcast 0
scalar LoRaNetwork.loRaNodes[1].LoRaNic.mac packetDropIncorrectlyReceived:count 0
attr interpolationmode none
attr recordingmode count
attr source packetDropReasonIsIncorrectlyReceived(packetDropped)
attr title "packet drop: incorrectly received, count"
scalar LoRaNetwork.loRaNodes[1].LoRaNic.mac packetDropIncorrectlyReceived:sum(packetBytes) 0
attr interpolationmode none
attr recordingmode sum(packetBytes)
attr source packetDropReasonIsIncorrectlyReceived(packetDropped)
attr title "packet drop: incorrectly received, sum(packetBytes)"
scalar LoRaNetwork.loRaNodes[1].LoRaNic.mac packetDropNotAddressedToUs:count 0
attr interpolationmode none
attr recordingmode count
attr source packetDropReasonIsNotAddressedToUs(packetDropped)
attr title "packet drop: not addressed to us, count"
scalar LoRaNetwork.loRaNodes[1].LoRaNic.mac packetDropNotAddressedToUs:sum(packetBytes) 0
attr interpolationmode none
attr recordingmode sum(packetBytes)
attr source packetDropReasonIsNotAddressedToUs(packetDropped)
attr title "packet drop: not addressed to us, sum(packetBytes)"
scalar LoRaNetwork.loRaNodes[1].LoRaNic.mac packetDropQueueOverflow:count 0
attr interpolationmode none
attr recordingmode count
attr source packetDropReasonIsQueueOverflow(packetDropped)
attr title "packet drop: queue overflow, count"
scalar LoRaNetwork.loRaNodes[1].LoRaNic.mac packetDropQueueOverflow:sum(packetBytes) 0
attr interpolationmode none
attr recordingmode sum(packetBytes)
attr source packetDropReasonIsQueueOverflow(packetDropped)
attr title "packet drop: queue overflow, sum(packetBytes)"
scalar LoRaNetwork.loRaNodes[1].LoRaNic.mac packetDropRetryLimitReached:count 0
attr interpolationmode none
attr recordingmode count
attr source packetDropReasonIsRetryLimitReached(packetDropped)
attr title "packet drop: retry limit reached, count"
scalar LoRaNetwork.loRaNodes[1].LoRaNic.mac packetDropRetryLimitReached:sum(packetBytes) 0
attr interpolationmode none
attr recordingmode sum(packetBytes)
attr source packetDropReasonIsRetryLimitReached(packetDropped)
attr title "packet drop: retry limit reached, sum(packetBytes)"
scalar LoRaNetwork.loRaNodes[1].LoRaNic.mac linkBroken:count 0
attr interpolationmode none
attr recordingmode count
attr source linkBroken
attr title "link break, count"
par LoRaNetwork.loRaNodes[1].LoRaNic.radio.antenna typename "\"inet.physicallayer.wireless.common.antenna.IsotropicAntenna\""
par LoRaNetwork.loRaNodes[1].LoRaNic.radio.antenna mobilityModule "\"^.^.^.mobility\""
par LoRaNetwork.loRaNodes[1].LoRaNic.radio.antenna numAntennas 1
par LoRaNetwork.loRaNodes[1].LoRaNic.radio.transmitter typename "\"flora.LoRaPhy.LoRaTransmitter\""
par LoRaNetwork.loRaNodes[1].LoRaNic.radio.transmitter preambleDuration 0.001s
attr unit s
par LoRaNetwork.loRaNodes[1].LoRaNic.radio.transmitter headerLength 0b
attr unit b
par LoRaNetwork.loRaNodes[1].LoRaNic.radio.transmitter bitrate 250000bps
attr unit bps
par LoRaNetwork.loRaNodes[1].LoRaNic.radio.transmitter power 0.025118W
attr unit W
par LoRaNetwork.loRaNodes[1].LoRaNic.radio.transmitter centerFrequency 8.68e+08Hz
attr unit Hz
par LoRaNetwork.loRaNodes[1].LoRaNic.radio.transmitter bandwidth 250000Hz
attr unit Hz
par LoRaNetwork.loRaNodes[1].LoRaNic.radio.transmitter modulation "\"LoRaModulation\""
scalar LoRaNetwork.loRaNodes[1].LoRaNic.radio.transmitter LoRaTransmissionCreated:count 0
attr recordingmode count
attr source LoRaTransmissionCreated
par LoRaNetwork.loRaNodes[1].LoRaNic.radio.receiver typename "\"flora.LoRaPhy.LoRaReceiver\""
par LoRaNetwork.loRaNodes[1].LoRaNic.radio.receiver snirThreshold -8dB
attr unit dB
par LoRaNetwork.loRaNodes[1].LoRaNic.radio.receiver snirThresholdMode "\"min\""
attr unit min,mean
par LoRaNetwork.loRaNodes[1].LoRaNic.radio.receiver energyDetection -110dBm
attr unit dBm
par LoRaNetwork.loRaNodes[1].LoRaNic.radio.receiver sensitivity -137dBm
attr unit dBm
par LoRaNetwork.loRaNodes[1].LoRaNic.radio.receiver centerFrequency 8.68e+08Hz
attr unit Hz
par LoRaNetwork.loRaNodes[1].LoRaNic.radio.receiver bandwidth 250000Hz
attr unit Hz
par LoRaNetwork.loRaNodes[1].LoRaNic.radio.receiver modulation "\"BPSK\""
par LoRaNetwork.loRaNodes[1].LoRaNic.radio.receiver alohaChannelModel false
scalar LoRaNetwork.loRaNodes[1].LoRaNic.radio.receiver numCollisions 0
scalar LoRaNetwork.loRaNodes[1].LoRaNic.radio.receiver rcvBelowSensitivity 0
scalar LoRaNetwork.loRaNodes[1].LoRaNic.radio.receiver LoRaReceptionCollision:count 0
attr recordingmode count
attr source LoRaReceptionCollision
par LoRaNetwork.loRaNodes[1].LoRaNic.radio.energyConsumer typename "\"flora.LoRaEnergyModules.LoRaEnergyConsumer\""
par LoRaNetwork.loRaNodes[1].LoRaNic.radio.energyConsumer energySourceModule "\"^.IdealEpEnergyStorage\""
par LoRaNetwork.loRaNodes[1].LoRaNic.radio.energyConsumer offPowerConsumption 0W
attr unit W
par LoRaNetwork.loRaNodes[1].LoRaNic.radio.energyConsumer sleepPowerConsumption 0.001W
attr unit W
par LoRaNetwork.loRaNodes[1].LoRaNic.radio.energyConsumer switchingPowerConsumption 0.001W
attr unit W
par LoRaNetwork.loRaNodes[1].LoRaNic.radio.energyConsumer receiverIdlePowerConsumption 0.002W
attr unit W
par LoRaNetwork.loRaNodes[1].LoRaNic.radio.energyConsumer receiverBusyPowerConsumption 0.005W
attr unit W
par LoRaNetwork.loRaNodes[1].LoRaNic.radio.energyConsumer receiverReceivingPowerConsumption 0.01W
attr unit W
par LoRaNetwork.loRaNodes[1].LoRaNic.radio.energyConsumer receiverReceivingPreamblePowerConsumption 0.01W
attr unit W
par LoRaNetwork.loRaNodes[1].LoRaNic.radio.energyConsumer receiverReceivingHeaderPowerConsumption 0.01W
attr unit W
par LoRaNetwork.loRaNodes[1].LoRaNic.radio.energyConsumer receiverReceivingDataPowerConsumption 0.01W
attr unit W
par LoRaNetwork.loRaNodes[1].LoRaNic.radio.energyConsumer transmitterIdlePowerConsumption 0.002W
attr unit W
par LoRaNetwork.loRaNodes[1].LoRaNic.radio.energyConsumer transmitterTransmittingPowerConsumption 0.1W
attr unit W
par LoRaNetwork.loRaNodes[1].LoRaNic.radio.energyConsumer transmitterTransmittingPreamblePowerConsumption 0.1W
attr unit W
par LoRaNetwork.loRaNodes[1].LoRaNic.radio.energyConsumer transmitterTransmittingHeaderPowerConsumption 0.1W
attr unit W
par LoRaNetwork.loRaNodes[1].LoRaNic.radio.energyConsumer transmitterTransmittingDataPowerConsumption 0.1W
attr unit W
par LoRaNetwork.loRaNodes[1].LoRaNic.radio.energyConsumer configFile "<root>...</root> at /Users/hiro/LoRaPos/simulation/flora_simulation/loraSimulation//energyConsumptionParameters.xml:2"
scalar LoRaNetwork.loRaNodes[1].LoRaNic.radio.energyConsumer totalEnergyConsumed 0
par LoRaNetwork.loRaNodes[1].LoRaNic.radio.IdealEpEnergyStorage typename "\"inet.power.storage.IdealEpEnergyStorage\""
scalar LoRaNetwork.loRaNodes[1].LoRaNic.radio.IdealEpEnergyStorage residualEnergyCapacity:last nan
attr interpolationmode linear
attr recordingmode last
attr source residualEnergyCapacityChanged
attr title "Residual energy capacity, last"
par LoRaNetwork.loRaNodes[1].LoRaNic.radio typename "\"flora.LoRa.LoRaRadio\""
par LoRaNetwork.loRaNodes[1].LoRaNic.radio radioMediumModule "\"LoRaMedium\""
par LoRaNetwork.loRaNodes[1].LoRaNic.radio energySourceModule "\"^.IdealEpEnergyStorage\""
par LoRaNetwork.loRaNodes[1].LoRaNic.radio initialRadioMode "\"off\""
attr enum off,sleep,receiver,transmitter,transceiver
par LoRaNetwork.loRaNodes[1].LoRaNic.radio switchingTimes "\"ms 0 0 0 0 0 0 0 0 0 0 0 0 0 0 0 0 0 0 0 0 0 0 0 0 0\""
par LoRaNetwork.loRaNodes[1].LoRaNic.radio sendRawBytes false
par LoRaNetwork.loRaNodes[1].LoRaNic.radio separateTransmissionParts false
par LoRaNetwork.loRaNodes[1].LoRaNic.radio separateReceptionParts false
par LoRaNetwork.loRaNodes[1].LoRaNic.radio displayCommunicationRange false
par LoRaNetwork.loRaNodes[1].LoRaNic.radio displayInterferenceRange false
par LoRaNetwork.loRaNodes[1].LoRaNic.radio centerFrequency 8.68e+08Hz
attr unit Hz
par LoRaNetwork.loRaNodes[1].LoRaNic.radio bandwidth 250000Hz
attr unit Hz
par LoRaNetwork.loRaNodes[1].LoRaNic.radio iAmGateway false
scalar LoRaNetwork.loRaNodes[1].LoRaNic.radio radioMode:count 3
attr interpolationmode sample-hold
attr recordingmode count
attr source radioModeChanged
attr title "Radio mode, count"
scalar LoRaNetwork.loRaNodes[1].LoRaNic.radio receptionState:count 0
attr interpolationmode sample-hold
attr recordingmode count
attr source receptionStateChanged
attr title "Radio reception state, count"
scalar LoRaNetwork.loRaNodes[1].LoRaNic.radio transmissionState:count 0
attr interpolationmode sample-hold
attr recordingmode count
attr source transmissionStateChanged
attr title "Radio transmission state, count"
statistic LoRaNetwork.loRaNodes[1].LoRaNic.radio minSnir:histogram
field count 0
field mean nan
field stddev nan
field min nan
field max nan
field sum 0
field sqrsum 0
attr recordingmode histogram
attr source minimumSnir(packetSentToUpper)
attr title "Min SNIR"
bin	-inf	0
bin	0	0
bin	1	0
statistic LoRaNetwork.loRaNodes[1].LoRaNic.radio packetErrorRate:histogram
field count 0
field mean nan
field stddev nan
field min nan
field max nan
field sum 0
field sqrsum 0
attr recordingmode histogram
attr source packetErrorRate(packetSentToUpper)
attr title "Packet error rate"
bin	-inf	0
bin	0	0
bin	1	0
statistic LoRaNetwork.loRaNodes[1].LoRaNic.radio bitErrorRate:histogram
field count 0
field mean nan
field stddev nan
field min nan
field max nan
field sum 0
field sqrsum 0
attr recordingmode histogram
attr source bitErrorRate(packetSentToUpper)
attr title "Bit error rate"
bin	-inf	0
bin	0	0
bin	1	0
statistic LoRaNetwork.loRaNodes[1].LoRaNic.radio symbolErrorRate:histogram
field count 0
field mean nan
field stddev nan
field min nan
field max nan
field sum 0
field sqrsum 0
attr recordingmode histogram
attr source symbolErrorRate(packetSentToUpper)
attr title "Symbol error rate"
bin	-inf	0
bin	0	0
bin	1	0
par LoRaNetwork.loRaNodes[1].LoRaNic typename "\"flora.LoRa.LoRaNic\""
par LoRaNetwork.loRaNodes[1].LoRaNic displayStringTextFormat "\"%a (%i)\\n%m\""
par LoRaNetwork.loRaNodes[1].LoRaNic recordPcap false
par LoRaNetwork.loRaNodes[1].LoRaNic numPcapRecorders 0
par LoRaNetwork.loRaNodes[1].LoRaNic interfaceTableModule "\"LoRaNetwork.loRaNodes[1].interfaceTable\""
par LoRaNetwork.loRaNodes[1].LoRaNic energySourceModule "\"^.IdealEpEnergyStorage\""
par LoRaNetwork.loRaNodes[1].LoRaNic protocol "\"\""
scalar LoRaNetwork.loRaNodes[1].LoRaNic packetDropInterfaceDown:count 0
attr interpolationmode none
attr recordingmode count
attr source packetDropReasonIsInterfaceDown(packetDropped)
attr title "packet drops: interface down, count"
scalar LoRaNetwork.loRaNodes[1].LoRaNic packetDropInterfaceDown:sum(packetBytes) 0
attr interpolationmode none
attr recordingmode sum(packetBytes)
attr source packetDropReasonIsInterfaceDown(packetDropped)
attr title "packet drops: interface down, sum(packetBytes)"
scalar LoRaNetwork.loRaNodes[1].LoRaNic packetDropNoCarrier:count 0
attr interpolationmode none
attr recordingmode count
attr source packetDropReasonIsNoCarrier(packetDropped)
attr title "packet drops: no carrier, count"
scalar LoRaNetwork.loRaNodes[1].LoRaNic packetDropNoCarrier:sum(packetBytes) 0
attr interpolationmode none
attr recordingmode sum(packetBytes)
attr source packetDropReasonIsNoCarrier(packetDropped)
attr title "packet drops: no carrier, sum(packetBytes)"
par LoRaNetwork.loRaNodes[1] typename "\"flora.LoraNode.LoRaNode\""
par LoRaNetwork.loRaNodes[1] numApps 0
par LoRaNetwork.loRaNodes[1] deploymentType "\"\""
par LoRaNetwork.loRaNodes[1] maxGatewayDistance 320
par LoRaNetwork.loRaNodes[1] gatewayX 320
par LoRaNetwork.loRaNodes[1] gatewayY 320
par LoRaNetwork.loRaNodes[2].interfaceTable typename "\"inet.networklayer.common.InterfaceTable\""
par LoRaNetwork.loRaNodes[2].interfaceTable displayAddresses false
par LoRaNetwork.loRaNodes[2].mobility typename "\"inet.mobility.static.StationaryMobility\""
par LoRaNetwork.loRaNodes[2].mobility subjectModule "\"^\""
par LoRaNetwork.loRaNodes[2].mobility coordinateSystemModule "\"\""
par LoRaNetwork.loRaNodes[2].mobility displayStringTextFormat "\"p: %p\\nv: %v\""
attr mutable ""
par LoRaNetwork.loRaNodes[2].mobility updateDisplayString true
par LoRaNetwork.loRaNodes[2].mobility constraintAreaMinX 0m
attr unit m
par LoRaNetwork.loRaNodes[2].mobility constraintAreaMinY 0m
attr unit m
par LoRaNetwork.loRaNodes[2].mobility constraintAreaMinZ 0m
attr unit m
par LoRaNetwork.loRaNodes[2].mobility constraintAreaMaxX "inf m"
attr unit m
par LoRaNetwork.loRaNodes[2].mobility constraintAreaMaxY "inf m"
attr unit m
par LoRaNetwork.loRaNodes[2].mobility constraintAreaMaxZ 0m
attr unit m
par LoRaNetwork.loRaNodes[2].mobility initialX "inf m"
attr unit m
par LoRaNetwork.loRaNodes[2].mobility initialY "inf m"
attr unit m
par LoRaNetwork.loRaNodes[2].mobility initialZ 0m
attr unit m
par LoRaNetwork.loRaNodes[2].mobility initialLatitude "nan deg"
attr unit deg
par LoRaNetwork.loRaNodes[2].mobility initialLongitude "nan deg"
attr unit deg
par LoRaNetwork.loRaNodes[2].mobility initialAltitude 0m
attr unit m
par LoRaNetwork.loRaNodes[2].mobility initialHeading 0deg
attr unit deg
par LoRaNetwork.loRaNodes[2].mobility initialElevation 0deg
attr unit deg
par LoRaNetwork.loRaNodes[2].mobility initialBank 0deg
attr unit deg
par LoRaNetwork.loRaNodes[2].mobility initFromDisplayString true
par LoRaNetwork.loRaNodes[2].mobility updateFromDisplayString true
par LoRaNetwork.loRaNodes[2].LoRaNic.radioIn.channel typename "\"ned.IdealChannel\""
par LoRaNetwork.loRaNodes[2].LoRaNic.mac.upperLayerOut.channel typename "\"ned.IdealChannel\""
par LoRaNetwork.loRaNodes[2].LoRaNic.upperLayerIn.channel typename "\"ned.IdealChannel\""
par LoRaNetwork.loRaNodes[2].LoRaNic.queue typename "\"inet.queueing.queue.DropTailQueue\""
par LoRaNetwork.loRaNodes[2].LoRaNic.queue displayStringTextFormat "\"contains %p pk (%l) pushed %u\\npulled %o removed %r dropped %d\""
par LoRaNetwork.loRaNodes[2].LoRaNic.queue packetCapacity -1
par LoRaNetwork.loRaNodes[2].LoRaNic.queue dataCapacity -1b
attr unit b
par LoRaNetwork.loRaNodes[2].LoRaNic.queue dropperClass "\"inet::queueing::PacketAtCollectionEndDropper\""
par LoRaNetwork.loRaNodes[2].LoRaNic.queue comparatorClass "\"\""
par LoRaNetwork.loRaNodes[2].LoRaNic.queue bufferModule "\"\""
scalar LoRaNetwork.loRaNodes[2].LoRaNic.queue queueLength:last nan
attr autoWarmupFilter false
attr interpolationmode sample-hold
attr recordingmode last
attr source "warmup(atomic(constant0(packetPushEnded) + count(packetPushStarted) - count(packetPulled) - count(packetRemoved) - count(packetDropped)))"
attr title "queue length, last"
attr unit pk
scalar LoRaNetwork.loRaNodes[2].LoRaNic.queue queueLength:max nan
attr autoWarmupFilter false
attr interpolationmode sample-hold
attr recordingmode max
attr source "warmup(atomic(constant0(packetPushEnded) + count(packetPushStarted) - count(packetPulled) - count(packetRemoved) - count(packetDropped)))"
attr title "queue length, max"
attr unit pk
scalar LoRaNetwork.loRaNodes[2].LoRaNic.queue queueLength:timeavg nan
attr autoWarmupFilter false
attr interpolationmode sample-hold
attr recordingmode timeavg
attr source "warmup(atomic(constant0(packetPushEnded) + count(packetPushStarted) - count(packetPulled) - count(packetRemoved) - count(packetDropped)))"
attr title "queue length, timeavg"
attr unit pk
scalar LoRaNetwork.loRaNodes[2].LoRaNic.queue queueBitLength:last nan
attr autoWarmupFilter false
attr interpolationmode sample-hold
attr recordingmode last
attr source "warmup(atomic(constant0(packetPushEnded) + sum(packetLength(packetPushStarted)) - sum(packetLength(packetPulled)) - sum(packetLength(packetRemoved)) - sum(packetLength(packetDropped))))"
attr title "queue bit length, last"
attr unit b
scalar LoRaNetwork.loRaNodes[2].LoRaNic.queue queueBitLength:max nan
attr autoWarmupFilter false
attr interpolationmode sample-hold
attr recordingmode max
attr source "warmup(atomic(constant0(packetPushEnded) + sum(packetLength(packetPushStarted)) - sum(packetLength(packetPulled)) - sum(packetLength(packetRemoved)) - sum(packetLength(packetDropped))))"
attr title "queue bit length, max"
attr unit b
scalar LoRaNetwork.loRaNodes[2].LoRaNic.queue queueBitLength:timeavg nan
attr autoWarmupFilter false
attr interpolationmode sample-hold
attr recordingmode timeavg
attr source "warmup(atomic(constant0(packetPushEnded) + sum(packetLength(packetPushStarted)) - sum(packetLength(packetPulled)) - sum(packetLength(packetRemoved)) - sum(packetLength(packetDropped))))"
attr title "queue bit length, timeavg"
attr unit b
statistic LoRaNetwork.loRaNodes[2].LoRaNic.queue queueingTime:histogram
field count 0
field mean nan
field stddev nan
field min nan
field max nan
field sum 0
field sqrsum 0
attr interpolationmode none
attr recordingmode histogram
attr source queueingTime(packetPulled)
attr title "queueing times"
attr unit s
bin	-inf	0
bin	0	0
bin	1	0
scalar LoRaNetwork.loRaNodes[2].LoRaNic.queue outgoingPackets:count 0
attr recordingmode count
attr source packetPulled
attr title "outgoing packets, count"
attr unit pk
scalar LoRaNetwork.loRaNodes[2].LoRaNic.queue outgoingPacketLengths:sum 0
attr interpolationmode none
attr recordingmode sum
attr source packetLength(packetPulled)
attr title "outgoing packet lengths, sum"
attr unit b
statistic LoRaNetwork.loRaNodes[2].LoRaNic.queue outgoingPacketLengths:histogram
field count 0
field mean nan
field stddev nan
field min nan
field max nan
field sum 0
field sqrsum 0
attr interpolationmode none
attr recordingmode histogram
attr source packetLength(packetPulled)
attr title "outgoing packet lengths"
attr unit b
bin	-inf	0
bin	0	0
bin	1	0
statistic LoRaNetwork.loRaNodes[2].LoRaNic.queue flowQueueingTime:histogram
field count 0
field mean nan
field stddev nan
field min nan
field max nan
field sum 0
field sqrsum 0
attr interpolationmode none
attr recordingmode histogram
attr source queueingTime(demuxFlow(packetPulled))
attr title "flow queueing times"
attr unit s
bin	-inf	0
bin	0	0
bin	1	0
scalar LoRaNetwork.loRaNodes[2].LoRaNic.queue incomingPackets:count 0
attr recordingmode count
attr source packetPushStarted
attr title "incoming packets, count"
attr unit pk
scalar LoRaNetwork.loRaNodes[2].LoRaNic.queue incomingPacketLengths:sum 0
attr interpolationmode none
attr recordingmode sum
attr source packetLength(packetPushStarted)
attr title "incoming packet lengths, sum"
attr unit b
statistic LoRaNetwork.loRaNodes[2].LoRaNic.queue incomingPacketLengths:histogram
field count 0
field mean nan
field stddev nan
field min nan
field max nan
field sum 0
field sqrsum 0
attr interpolationmode none
attr recordingmode histogram
attr source packetLength(packetPushStarted)
attr title "incoming packet lengths"
attr unit b
bin	-inf	0
bin	0	0
bin	1	0
scalar LoRaNetwork.loRaNodes[2].LoRaNic.queue droppedPacketsQueueOverflow:count 0
attr interpolationmode none
attr recordingmode count
attr source packetDropReasonIsQueueOverflow(packetDropped)
attr title "dropped packets: queue overflow, count"
attr unit pk
scalar LoRaNetwork.loRaNodes[2].LoRaNic.queue droppedPacketLengthsQueueOverflow:sum 0
attr interpolationmode none
attr recordingmode sum
attr source packetLength(packetDropReasonIsQueueOverflow(packetDropped))
attr title "dropped packet lengths: queue overflow, sum"
attr unit b
par LoRaNetwork.loRaNodes[2].LoRaNic.mac typename "\"flora.LoRa.LoRaMac\""
par LoRaNetwork.loRaNodes[2].LoRaNic.mac interfaceTableModule "\"LoRaNetwork.loRaNodes[2].interfaceTable\""
par LoRaNetwork.loRaNodes[2].LoRaNic.mac radioModule "\"^.radio\""
par LoRaNetwork.loRaNodes[2].LoRaNic.mac address "\"0A-AA-00-00-00-03\""
attr mutable ""
par LoRaNetwork.loRaNodes[2].LoRaNic.mac fcsMode "\"declared\""
attr enum declared,computed
par LoRaNetwork.loRaNodes[2].LoRaNic.mac useAck true
par LoRaNetwork.loRaNodes[2].LoRaNic.mac bitrate 250bps
attr unit bps
par LoRaNetwork.loRaNodes[2].LoRaNic.mac headerLength 17B
attr unit B
par LoRaNetwork.loRaNodes[2].LoRaNic.mac ackLength 14B
attr unit B
par LoRaNetwork.loRaNodes[2].LoRaNic.mac sifsTime 1e-05s
attr unit s
par LoRaNetwork.loRaNodes[2].LoRaNic.mac slotTime 2e-05s
attr unit s
par LoRaNetwork.loRaNodes[2].LoRaNic.mac difsTime 5e-05s
attr unit s
par LoRaNetwork.loRaNodes[2].LoRaNic.mac ackTimeout 0.44803s
attr unit s
par LoRaNetwork.loRaNodes[2].LoRaNic.mac mtu 1500
par LoRaNetwork.loRaNodes[2].LoRaNic.mac cwMin 31
par LoRaNetwork.loRaNodes[2].LoRaNic.mac cwMax 1023
par LoRaNetwork.loRaNodes[2].LoRaNic.mac cwMulticast 31
par LoRaNetwork.loRaNodes[2].LoRaNic.mac retryLimit 7
scalar LoRaNetwork.loRaNodes[2].LoRaNic.mac numRetry 0
scalar LoRaNetwork.loRaNodes[2].LoRaNic.mac numSentWithoutRetry 0
scalar LoRaNetwork.loRaNodes[2].LoRaNic.mac numGivenUp 0
scalar LoRaNetwork.loRaNodes[2].LoRaNic.mac numSent 0
scalar LoRaNetwork.loRaNodes[2].LoRaNic.mac numReceived 0
scalar LoRaNetwork.loRaNodes[2].LoRaNic.mac numSentBroadcast 0
scalar LoRaNetwork.loRaNodes[2].LoRaNic.mac numReceivedBroadcast 0
scalar LoRaNetwork.loRaNodes[2].LoRaNic.mac packetDropIncorrectlyReceived:count 0
attr interpolationmode none
attr recordingmode count
attr source packetDropReasonIsIncorrectlyReceived(packetDropped)
attr title "packet drop: incorrectly received, count"
scalar LoRaNetwork.loRaNodes[2].LoRaNic.mac packetDropIncorrectlyReceived:sum(packetBytes) 0
attr interpolationmode none
attr recordingmode sum(packetBytes)
attr source packetDropReasonIsIncorrectlyReceived(packetDropped)
attr title "packet drop: incorrectly received, sum(packetBytes)"
scalar LoRaNetwork.loRaNodes[2].LoRaNic.mac packetDropNotAddressedToUs:count 0
attr interpolationmode none
attr recordingmode count
attr source packetDropReasonIsNotAddressedToUs(packetDropped)
attr title "packet drop: not addressed to us, count"
scalar LoRaNetwork.loRaNodes[2].LoRaNic.mac packetDropNotAddressedToUs:sum(packetBytes) 0
attr interpolationmode none
attr recordingmode sum(packetBytes)
attr source packetDropReasonIsNotAddressedToUs(packetDropped)
attr title "packet drop: not addressed to us, sum(packetBytes)"
scalar LoRaNetwork.loRaNodes[2].LoRaNic.mac packetDropQueueOverflow:count 0
attr interpolationmode none
attr recordingmode count
attr source packetDropReasonIsQueueOverflow(packetDropped)
attr title "packet drop: queue overflow, count"
scalar LoRaNetwork.loRaNodes[2].LoRaNic.mac packetDropQueueOverflow:sum(packetBytes) 0
attr interpolationmode none
attr recordingmode sum(packetBytes)
attr source packetDropReasonIsQueueOverflow(packetDropped)
attr title "packet drop: queue overflow, sum(packetBytes)"
scalar LoRaNetwork.loRaNodes[2].LoRaNic.mac packetDropRetryLimitReached:count 0
attr interpolationmode none
attr recordingmode count
attr source packetDropReasonIsRetryLimitReached(packetDropped)
attr title "packet drop: retry limit reached, count"
scalar LoRaNetwork.loRaNodes[2].LoRaNic.mac packetDropRetryLimitReached:sum(packetBytes) 0
attr interpolationmode none
attr recordingmode sum(packetBytes)
attr source packetDropReasonIsRetryLimitReached(packetDropped)
attr title "packet drop: retry limit reached, sum(packetBytes)"
scalar LoRaNetwork.loRaNodes[2].LoRaNic.mac linkBroken:count 0
attr interpolationmode none
attr recordingmode count
attr source linkBroken
attr title "link break, count"
par LoRaNetwork.loRaNodes[2].LoRaNic.radio.antenna typename "\"inet.physicallayer.wireless.common.antenna.IsotropicAntenna\""
par LoRaNetwork.loRaNodes[2].LoRaNic.radio.antenna mobilityModule "\"^.^.^.mobility\""
par LoRaNetwork.loRaNodes[2].LoRaNic.radio.antenna numAntennas 1
par LoRaNetwork.loRaNodes[2].LoRaNic.radio.transmitter typename "\"flora.LoRaPhy.LoRaTransmitter\""
par LoRaNetwork.loRaNodes[2].LoRaNic.radio.transmitter preambleDuration 0.001s
attr unit s
par LoRaNetwork.loRaNodes[2].LoRaNic.radio.transmitter headerLength 0b
attr unit b
par LoRaNetwork.loRaNodes[2].LoRaNic.radio.transmitter bitrate 250000bps
attr unit bps
par LoRaNetwork.loRaNodes[2].LoRaNic.radio.transmitter power 0.025118W
attr unit W
par LoRaNetwork.loRaNodes[2].LoRaNic.radio.transmitter centerFrequency 8.68e+08Hz
attr unit Hz
par LoRaNetwork.loRaNodes[2].LoRaNic.radio.transmitter bandwidth 250000Hz
attr unit Hz
par LoRaNetwork.loRaNodes[2].LoRaNic.radio.transmitter modulation "\"LoRaModulation\""
scalar LoRaNetwork.loRaNodes[2].LoRaNic.radio.transmitter LoRaTransmissionCreated:count 0
attr recordingmode count
attr source LoRaTransmissionCreated
par LoRaNetwork.loRaNodes[2].LoRaNic.radio.receiver typename "\"flora.LoRaPhy.LoRaReceiver\""
par LoRaNetwork.loRaNodes[2].LoRaNic.radio.receiver snirThreshold -8dB
attr unit dB
par LoRaNetwork.loRaNodes[2].LoRaNic.radio.receiver snirThresholdMode "\"min\""
attr unit min,mean
par LoRaNetwork.loRaNodes[2].LoRaNic.radio.receiver energyDetection -110dBm
attr unit dBm
par LoRaNetwork.loRaNodes[2].LoRaNic.radio.receiver sensitivity -137dBm
attr unit dBm
par LoRaNetwork.loRaNodes[2].LoRaNic.radio.receiver centerFrequency 8.68e+08Hz
attr unit Hz
par LoRaNetwork.loRaNodes[2].LoRaNic.radio.receiver bandwidth 250000Hz
attr unit Hz
par LoRaNetwork.loRaNodes[2].LoRaNic.radio.receiver modulation "\"BPSK\""
par LoRaNetwork.loRaNodes[2].LoRaNic.radio.receiver alohaChannelModel false
scalar LoRaNetwork.loRaNodes[2].LoRaNic.radio.receiver numCollisions 0
scalar LoRaNetwork.loRaNodes[2].LoRaNic.radio.receiver rcvBelowSensitivity 0
scalar LoRaNetwork.loRaNodes[2].LoRaNic.radio.receiver LoRaReceptionCollision:count 0
attr recordingmode count
attr source LoRaReceptionCollision
par LoRaNetwork.loRaNodes[2].LoRaNic.radio.energyConsumer typename "\"flora.LoRaEnergyModules.LoRaEnergyConsumer\""
par LoRaNetwork.loRaNodes[2].LoRaNic.radio.energyConsumer energySourceModule "\"^.IdealEpEnergyStorage\""
par LoRaNetwork.loRaNodes[2].LoRaNic.radio.energyConsumer offPowerConsumption 0W
attr unit W
par LoRaNetwork.loRaNodes[2].LoRaNic.radio.energyConsumer sleepPowerConsumption 0.001W
attr unit W
par LoRaNetwork.loRaNodes[2].LoRaNic.radio.energyConsumer switchingPowerConsumption 0.001W
attr unit W
par LoRaNetwork.loRaNodes[2].LoRaNic.radio.energyConsumer receiverIdlePowerConsumption 0.002W
attr unit W
par LoRaNetwork.loRaNodes[2].LoRaNic.radio.energyConsumer receiverBusyPowerConsumption 0.005W
attr unit W
par LoRaNetwork.loRaNodes[2].LoRaNic.radio.energyConsumer receiverReceivingPowerConsumption 0.01W
attr unit W
par LoRaNetwork.loRaNodes[2].LoRaNic.radio.energyConsumer receiverReceivingPreamblePowerConsumption 0.01W
attr unit W
par LoRaNetwork.loRaNodes[2].LoRaNic.radio.energyConsumer receiverReceivingHeaderPowerConsumption 0.01W
attr unit W
par LoRaNetwork.loRaNodes[2].LoRaNic.radio.energyConsumer receiverReceivingDataPowerConsumption 0.01W
attr unit W
par LoRaNetwork.loRaNodes[2].LoRaNic.radio.energyConsumer transmitterIdlePowerConsumption 0.002W
attr unit W
par LoRaNetwork.loRaNodes[2].LoRaNic.radio.energyConsumer transmitterTransmittingPowerConsumption 0.1W
attr unit W
par LoRaNetwork.loRaNodes[2].LoRaNic.radio.energyConsumer transmitterTransmittingPreamblePowerConsumption 0.1W
attr unit W
par LoRaNetwork.loRaNodes[2].LoRaNic.radio.energyConsumer transmitterTransmittingHeaderPowerConsumption 0.1W
attr unit W
par LoRaNetwork.loRaNodes[2].LoRaNic.radio.energyConsumer transmitterTransmittingDataPowerConsumption 0.1W
attr unit W
par LoRaNetwork.loRaNodes[2].LoRaNic.radio.energyConsumer configFile "<root>...</root> at /Users/hiro/LoRaPos/simulation/flora_simulation/loraSimulation//energyConsumptionParameters.xml:2"
scalar LoRaNetwork.loRaNodes[2].LoRaNic.radio.energyConsumer totalEnergyConsumed 0
par LoRaNetwork.loRaNodes[2].LoRaNic.radio.IdealEpEnergyStorage typename "\"inet.power.storage.IdealEpEnergyStorage\""
scalar LoRaNetwork.loRaNodes[2].LoRaNic.radio.IdealEpEnergyStorage residualEnergyCapacity:last nan
attr interpolationmode linear
attr recordingmode last
attr source residualEnergyCapacityChanged
attr title "Residual energy capacity, last"
par LoRaNetwork.loRaNodes[2].LoRaNic.radio typename "\"flora.LoRa.LoRaRadio\""
par LoRaNetwork.loRaNodes[2].LoRaNic.radio radioMediumModule "\"LoRaMedium\""
par LoRaNetwork.loRaNodes[2].LoRaNic.radio energySourceModule "\"^.IdealEpEnergyStorage\""
par LoRaNetwork.loRaNodes[2].LoRaNic.radio initialRadioMode "\"off\""
attr enum off,sleep,receiver,transmitter,transceiver
par LoRaNetwork.loRaNodes[2].LoRaNic.radio switchingTimes "\"ms 0 0 0 0 0 0 0 0 0 0 0 0 0 0 0 0 0 0 0 0 0 0 0 0 0\""
par LoRaNetwork.loRaNodes[2].LoRaNic.radio sendRawBytes false
par LoRaNetwork.loRaNodes[2].LoRaNic.radio separateTransmissionParts false
par LoRaNetwork.loRaNodes[2].LoRaNic.radio separateReceptionParts false
par LoRaNetwork.loRaNodes[2].LoRaNic.radio displayCommunicationRange false
par LoRaNetwork.loRaNodes[2].LoRaNic.radio displayInterferenceRange false
par LoRaNetwork.loRaNodes[2].LoRaNic.radio centerFrequency 8.68e+08Hz
attr unit Hz
par LoRaNetwork.loRaNodes[2].LoRaNic.radio bandwidth 250000Hz
attr unit Hz
par LoRaNetwork.loRaNodes[2].LoRaNic.radio iAmGateway false
scalar LoRaNetwork.loRaNodes[2].LoRaNic.radio radioMode:count 3
attr interpolationmode sample-hold
attr recordingmode count
attr source radioModeChanged
attr title "Radio mode, count"
scalar LoRaNetwork.loRaNodes[2].LoRaNic.radio receptionState:count 0
attr interpolationmode sample-hold
attr recordingmode count
attr source receptionStateChanged
attr title "Radio reception state, count"
scalar LoRaNetwork.loRaNodes[2].LoRaNic.radio transmissionState:count 0
attr interpolationmode sample-hold
attr recordingmode count
attr source transmissionStateChanged
attr title "Radio transmission state, count"
statistic LoRaNetwork.loRaNodes[2].LoRaNic.radio minSnir:histogram
field count 0
field mean nan
field stddev nan
field min nan
field max nan
field sum 0
field sqrsum 0
attr recordingmode histogram
attr source minimumSnir(packetSentToUpper)
attr title "Min SNIR"
bin	-inf	0
bin	0	0
bin	1	0
statistic LoRaNetwork.loRaNodes[2].LoRaNic.radio packetErrorRate:histogram
field count 0
field mean nan
field stddev nan
field min nan
field max nan
field sum 0
field sqrsum 0
attr recordingmode histogram
attr source packetErrorRate(packetSentToUpper)
attr title "Packet error rate"
bin	-inf	0
bin	0	0
bin	1	0
statistic LoRaNetwork.loRaNodes[2].LoRaNic.radio bitErrorRate:histogram
field count 0
field mean nan
field stddev nan
field min nan
field max nan
field sum 0
field sqrsum 0
attr recordingmode histogram
attr source bitErrorRate(packetSentToUpper)
attr title "Bit error rate"
bin	-inf	0
bin	0	0
bin	1	0
statistic LoRaNetwork.loRaNodes[2].LoRaNic.radio symbolErrorRate:histogram
field count 0
field mean nan
field stddev nan
field min nan
field max nan
field sum 0
field sqrsum 0
attr recordingmode histogram
attr source symbolErrorRate(packetSentToUpper)
attr title "Symbol error rate"
bin	-inf	0
bin	0	0
bin	1	0
par LoRaNetwork.loRaNodes[2].LoRaNic typename "\"flora.LoRa.LoRaNic\""
par LoRaNetwork.loRaNodes[2].LoRaNic displayStringTextFormat "\"%a (%i)\\n%m\""
par LoRaNetwork.loRaNodes[2].LoRaNic recordPcap false
par LoRaNetwork.loRaNodes[2].LoRaNic numPcapRecorders 0
par LoRaNetwork.loRaNodes[2].LoRaNic interfaceTableModule "\"LoRaNetwork.loRaNodes[2].interfaceTable\""
par LoRaNetwork.loRaNodes[2].LoRaNic energySourceModule "\"^.IdealEpEnergyStorage\""
par LoRaNetwork.loRaNodes[2].LoRaNic protocol "\"\""
scalar LoRaNetwork.loRaNodes[2].LoRaNic packetDropInterfaceDown:count 0
attr interpolationmode none
attr recordingmode count
attr source packetDropReasonIsInterfaceDown(packetDropped)
attr title "packet drops: interface down, count"
scalar LoRaNetwork.loRaNodes[2].LoRaNic packetDropInterfaceDown:sum(packetBytes) 0
attr interpolationmode none
attr recordingmode sum(packetBytes)
attr source packetDropReasonIsInterfaceDown(packetDropped)
attr title "packet drops: interface down, sum(packetBytes)"
scalar LoRaNetwork.loRaNodes[2].LoRaNic packetDropNoCarrier:count 0
attr interpolationmode none
attr recordingmode count
attr source packetDropReasonIsNoCarrier(packetDropped)
attr title "packet drops: no carrier, count"
scalar LoRaNetwork.loRaNodes[2].LoRaNic packetDropNoCarrier:sum(packetBytes) 0
attr interpolationmode none
attr recordingmode sum(packetBytes)
attr source packetDropReasonIsNoCarrier(packetDropped)
attr title "packet drops: no carrier, sum(packetBytes)"
par LoRaNetwork.loRaNodes[2] typename "\"flora.LoraNode.LoRaNode\""
par LoRaNetwork.loRaNodes[2] numApps 0
par LoRaNetwork.loRaNodes[2] deploymentType "\"\""
par LoRaNetwork.loRaNodes[2] maxGatewayDistance 320
par LoRaNetwork.loRaNodes[2] gatewayX 320
par LoRaNetwork.loRaNodes[2] gatewayY 320
par LoRaNetwork.loRaNodes[3].interfaceTable typename "\"inet.networklayer.common.InterfaceTable\""
par LoRaNetwork.loRaNodes[3].interfaceTable displayAddresses false
par LoRaNetwork.loRaNodes[3].mobility typename "\"inet.mobility.static.StationaryMobility\""
par LoRaNetwork.loRaNodes[3].mobility subjectModule "\"^\""
par LoRaNetwork.loRaNodes[3].mobility coordinateSystemModule "\"\""
par LoRaNetwork.loRaNodes[3].mobility displayStringTextFormat "\"p: %p\\nv: %v\""
attr mutable ""
par LoRaNetwork.loRaNodes[3].mobility updateDisplayString true
par LoRaNetwork.loRaNodes[3].mobility constraintAreaMinX 0m
attr unit m
par LoRaNetwork.loRaNodes[3].mobility constraintAreaMinY 0m
attr unit m
par LoRaNetwork.loRaNodes[3].mobility constraintAreaMinZ 0m
attr unit m
par LoRaNetwork.loRaNodes[3].mobility constraintAreaMaxX "inf m"
attr unit m
par LoRaNetwork.loRaNodes[3].mobility constraintAreaMaxY "inf m"
attr unit m
par LoRaNetwork.loRaNodes[3].mobility constraintAreaMaxZ 0m
attr unit m
par LoRaNetwork.loRaNodes[3].mobility initialX "inf m"
attr unit m
par LoRaNetwork.loRaNodes[3].mobility initialY "inf m"
attr unit m
par LoRaNetwork.loRaNodes[3].mobility initialZ 0m
attr unit m
par LoRaNetwork.loRaNodes[3].mobility initialLatitude "nan deg"
attr unit deg
par LoRaNetwork.loRaNodes[3].mobility initialLongitude "nan deg"
attr unit deg
par LoRaNetwork.loRaNodes[3].mobility initialAltitude 0m
attr unit m
par LoRaNetwork.loRaNodes[3].mobility initialHeading 0deg
attr unit deg
par LoRaNetwork.loRaNodes[3].mobility initialElevation 0deg
attr unit deg
par LoRaNetwork.loRaNodes[3].mobility initialBank 0deg
attr unit deg
par LoRaNetwork.loRaNodes[3].mobility initFromDisplayString true
par LoRaNetwork.loRaNodes[3].mobility updateFromDisplayString true
par LoRaNetwork.loRaNodes[3].LoRaNic.radioIn.channel typename "\"ned.IdealChannel\""
par LoRaNetwork.loRaNodes[3].LoRaNic.mac.upperLayerOut.channel typename "\"ned.IdealChannel\""
par LoRaNetwork.loRaNodes[3].LoRaNic.upperLayerIn.channel typename "\"ned.IdealChannel\""
par LoRaNetwork.loRaNodes[3].LoRaNic.queue typename "\"inet.queueing.queue.DropTailQueue\""
par LoRaNetwork.loRaNodes[3].LoRaNic.queue displayStringTextFormat "\"contains %p pk (%l) pushed %u\\npulled %o removed %r dropped %d\""
par LoRaNetwork.loRaNodes[3].LoRaNic.queue packetCapacity -1
par LoRaNetwork.loRaNodes[3].LoRaNic.queue dataCapacity -1b
attr unit b
par LoRaNetwork.loRaNodes[3].LoRaNic.queue dropperClass "\"inet::queueing::PacketAtCollectionEndDropper\""
par LoRaNetwork.loRaNodes[3].LoRaNic.queue comparatorClass "\"\""
par LoRaNetwork.loRaNodes[3].LoRaNic.queue bufferModule "\"\""
scalar LoRaNetwork.loRaNodes[3].LoRaNic.queue queueLength:last nan
attr autoWarmupFilter false
attr interpolationmode sample-hold
attr recordingmode last
attr source "warmup(atomic(constant0(packetPushEnded) + count(packetPushStarted) - count(packetPulled) - count(packetRemoved) - count(packetDropped)))"
attr title "queue length, last"
attr unit pk
scalar LoRaNetwork.loRaNodes[3].LoRaNic.queue queueLength:max nan
attr autoWarmupFilter false
attr interpolationmode sample-hold
attr recordingmode max
attr source "warmup(atomic(constant0(packetPushEnded) + count(packetPushStarted) - count(packetPulled) - count(packetRemoved) - count(packetDropped)))"
attr title "queue length, max"
attr unit pk
scalar LoRaNetwork.loRaNodes[3].LoRaNic.queue queueLength:timeavg nan
attr autoWarmupFilter false
attr interpolationmode sample-hold
attr recordingmode timeavg
attr source "warmup(atomic(constant0(packetPushEnded) + count(packetPushStarted) - count(packetPulled) - count(packetRemoved) - count(packetDropped)))"
attr title "queue length, timeavg"
attr unit pk
scalar LoRaNetwork.loRaNodes[3].LoRaNic.queue queueBitLength:last nan
attr autoWarmupFilter false
attr interpolationmode sample-hold
attr recordingmode last
attr source "warmup(atomic(constant0(packetPushEnded) + sum(packetLength(packetPushStarted)) - sum(packetLength(packetPulled)) - sum(packetLength(packetRemoved)) - sum(packetLength(packetDropped))))"
attr title "queue bit length, last"
attr unit b
scalar LoRaNetwork.loRaNodes[3].LoRaNic.queue queueBitLength:max nan
attr autoWarmupFilter false
attr interpolationmode sample-hold
attr recordingmode max
attr source "warmup(atomic(constant0(packetPushEnded) + sum(packetLength(packetPushStarted)) - sum(packetLength(packetPulled)) - sum(packetLength(packetRemoved)) - sum(packetLength(packetDropped))))"
attr title "queue bit length, max"
attr unit b
scalar LoRaNetwork.loRaNodes[3].LoRaNic.queue queueBitLength:timeavg nan
attr autoWarmupFilter false
attr interpolationmode sample-hold
attr recordingmode timeavg
attr source "warmup(atomic(constant0(packetPushEnded) + sum(packetLength(packetPushStarted)) - sum(packetLength(packetPulled)) - sum(packetLength(packetRemoved)) - sum(packetLength(packetDropped))))"
attr title "queue bit length, timeavg"
attr unit b
statistic LoRaNetwork.loRaNodes[3].LoRaNic.queue queueingTime:histogram
field count 0
field mean nan
field stddev nan
field min nan
field max nan
field sum 0
field sqrsum 0
attr interpolationmode none
attr recordingmode histogram
attr source queueingTime(packetPulled)
attr title "queueing times"
attr unit s
bin	-inf	0
bin	0	0
bin	1	0
scalar LoRaNetwork.loRaNodes[3].LoRaNic.queue outgoingPackets:count 0
attr recordingmode count
attr source packetPulled
attr title "outgoing packets, count"
attr unit pk
scalar LoRaNetwork.loRaNodes[3].LoRaNic.queue outgoingPacketLengths:sum 0
attr interpolationmode none
attr recordingmode sum
attr source packetLength(packetPulled)
attr title "outgoing packet lengths, sum"
attr unit b
statistic LoRaNetwork.loRaNodes[3].LoRaNic.queue outgoingPacketLengths:histogram
field count 0
field mean nan
field stddev nan
field min nan
field max nan
field sum 0
field sqrsum 0
attr interpolationmode none
attr recordingmode histogram
attr source packetLength(packetPulled)
attr title "outgoing packet lengths"
attr unit b
bin	-inf	0
bin	0	0
bin	1	0
statistic LoRaNetwork.loRaNodes[3].LoRaNic.queue flowQueueingTime:histogram
field count 0
field mean nan
field stddev nan
field min nan
field max nan
field sum 0
field sqrsum 0
attr interpolationmode none
attr recordingmode histogram
attr source queueingTime(demuxFlow(packetPulled))
attr title "flow queueing times"
attr unit s
bin	-inf	0
bin	0	0
bin	1	0
scalar LoRaNetwork.loRaNodes[3].LoRaNic.queue incomingPackets:count 0
attr recordingmode count
attr source packetPushStarted
attr title "incoming packets, count"
attr unit pk
scalar LoRaNetwork.loRaNodes[3].LoRaNic.queue incomingPacketLengths:sum 0
attr interpolationmode none
attr recordingmode sum
attr source packetLength(packetPushStarted)
attr title "incoming packet lengths, sum"
attr unit b
statistic LoRaNetwork.loRaNodes[3].LoRaNic.queue incomingPacketLengths:histogram
field count 0
field mean nan
field stddev nan
field min nan
field max nan
field sum 0
field sqrsum 0
attr interpolationmode none
attr recordingmode histogram
attr source packetLength(packetPushStarted)
attr title "incoming packet lengths"
attr unit b
bin	-inf	0
bin	0	0
bin	1	0
scalar LoRaNetwork.loRaNodes[3].LoRaNic.queue droppedPacketsQueueOverflow:count 0
attr interpolationmode none
attr recordingmode count
attr source packetDropReasonIsQueueOverflow(packetDropped)
attr title "dropped packets: queue overflow, count"
attr unit pk
scalar LoRaNetwork.loRaNodes[3].LoRaNic.queue droppedPacketLengthsQueueOverflow:sum 0
attr interpolationmode none
attr recordingmode sum
attr source packetLength(packetDropReasonIsQueueOverflow(packetDropped))
attr title "dropped packet lengths: queue overflow, sum"
attr unit b
par LoRaNetwork.loRaNodes[3].LoRaNic.mac typename "\"flora.LoRa.LoRaMac\""
par LoRaNetwork.loRaNodes[3].LoRaNic.mac interfaceTableModule "\"LoRaNetwork.loRaNodes[3].interfaceTable\""
par LoRaNetwork.loRaNodes[3].LoRaNic.mac radioModule "\"^.radio\""
par LoRaNetwork.loRaNodes[3].LoRaNic.mac address "\"0A-AA-00-00-00-04\""
attr mutable ""
par LoRaNetwork.loRaNodes[3].LoRaNic.mac fcsMode "\"declared\""
attr enum declared,computed
par LoRaNetwork.loRaNodes[3].LoRaNic.mac useAck true
par LoRaNetwork.loRaNodes[3].LoRaNic.mac bitrate 250bps
attr unit bps
par LoRaNetwork.loRaNodes[3].LoRaNic.mac headerLength 17B
attr unit B
par LoRaNetwork.loRaNodes[3].LoRaNic.mac ackLength 14B
attr unit B
par LoRaNetwork.loRaNodes[3].LoRaNic.mac sifsTime 1e-05s
attr unit s
par LoRaNetwork.loRaNodes[3].LoRaNic.mac slotTime 2e-05s
attr unit s
par LoRaNetwork.loRaNodes[3].LoRaNic.mac difsTime 5e-05s
attr unit s
par LoRaNetwork.loRaNodes[3].LoRaNic.mac ackTimeout 0.44803s
attr unit s
par LoRaNetwork.loRaNodes[3].LoRaNic.mac mtu 1500
par LoRaNetwork.loRaNodes[3].LoRaNic.mac cwMin 31
par LoRaNetwork.loRaNodes[3].LoRaNic.mac cwMax 1023
par LoRaNetwork.loRaNodes[3].LoRaNic.mac cwMulticast 31
par LoRaNetwork.loRaNodes[3].LoRaNic.mac retryLimit 7
scalar LoRaNetwork.loRaNodes[3].LoRaNic.mac numRetry 0
scalar LoRaNetwork.loRaNodes[3].LoRaNic.mac numSentWithoutRetry 0
scalar LoRaNetwork.loRaNodes[3].LoRaNic.mac numGivenUp 0
scalar LoRaNetwork.loRaNodes[3].LoRaNic.mac numSent 0
scalar LoRaNetwork.loRaNodes[3].LoRaNic.mac numReceived 0
scalar LoRaNetwork.loRaNodes[3].LoRaNic.mac numSentBroadcast 0
scalar LoRaNetwork.loRaNodes[3].LoRaNic.mac numReceivedBroadcast 0
scalar LoRaNetwork.loRaNodes[3].LoRaNic.mac packetDropIncorrectlyReceived:count 0
attr interpolationmode none
attr recordingmode count
attr source packetDropReasonIsIncorrectlyReceived(packetDropped)
attr title "packet drop: incorrectly received, count"
scalar LoRaNetwork.loRaNodes[3].LoRaNic.mac packetDropIncorrectlyReceived:sum(packetBytes) 0
attr interpolationmode none
attr recordingmode sum(packetBytes)
attr source packetDropReasonIsIncorrectlyReceived(packetDropped)
attr title "packet drop: incorrectly received, sum(packetBytes)"
scalar LoRaNetwork.loRaNodes[3].LoRaNic.mac packetDropNotAddressedToUs:count 0
attr interpolationmode none
attr recordingmode count
attr source packetDropReasonIsNotAddressedToUs(packetDropped)
attr title "packet drop: not addressed to us, count"
scalar LoRaNetwork.loRaNodes[3].LoRaNic.mac packetDropNotAddressedToUs:sum(packetBytes) 0
attr interpolationmode none
attr recordingmode sum(packetBytes)
attr source packetDropReasonIsNotAddressedToUs(packetDropped)
attr title "packet drop: not addressed to us, sum(packetBytes)"
scalar LoRaNetwork.loRaNodes[3].LoRaNic.mac packetDropQueueOverflow:count 0
attr interpolationmode none
attr recordingmode count
attr source packetDropReasonIsQueueOverflow(packetDropped)
attr title "packet drop: queue overflow, count"
scalar LoRaNetwork.loRaNodes[3].LoRaNic.mac packetDropQueueOverflow:sum(packetBytes) 0
attr interpolationmode none
attr recordingmode sum(packetBytes)
attr source packetDropReasonIsQueueOverflow(packetDropped)
attr title "packet drop: queue overflow, sum(packetBytes)"
scalar LoRaNetwork.loRaNodes[3].LoRaNic.mac packetDropRetryLimitReached:count 0
attr interpolationmode none
attr recordingmode count
attr source packetDropReasonIsRetryLimitReached(packetDropped)
attr title "packet drop: retry limit reached, count"
scalar LoRaNetwork.loRaNodes[3].LoRaNic.mac packetDropRetryLimitReached:sum(packetBytes) 0
attr interpolationmode none
attr recordingmode sum(packetBytes)
attr source packetDropReasonIsRetryLimitReached(packetDropped)
attr title "packet drop: retry limit reached, sum(packetBytes)"
scalar LoRaNetwork.loRaNodes[3].LoRaNic.mac linkBroken:count 0
attr interpolationmode none
attr recordingmode count
attr source linkBroken
attr title "link break, count"
par LoRaNetwork.loRaNodes[3].LoRaNic.radio.antenna typename "\"inet.physicallayer.wireless.common.antenna.IsotropicAntenna\""
par LoRaNetwork.loRaNodes[3].LoRaNic.radio.antenna mobilityModule "\"^.^.^.mobility\""
par LoRaNetwork.loRaNodes[3].LoRaNic.radio.antenna numAntennas 1
par LoRaNetwork.loRaNodes[3].LoRaNic.radio.transmitter typename "\"flora.LoRaPhy.LoRaTransmitter\""
par LoRaNetwork.loRaNodes[3].LoRaNic.radio.transmitter preambleDuration 0.001s
attr unit s
par LoRaNetwork.loRaNodes[3].LoRaNic.radio.transmitter headerLength 0b
attr unit b
par LoRaNetwork.loRaNodes[3].LoRaNic.radio.transmitter bitrate 250000bps
attr unit bps
par LoRaNetwork.loRaNodes[3].LoRaNic.radio.transmitter power 0.025118W
attr unit W
par LoRaNetwork.loRaNodes[3].LoRaNic.radio.transmitter centerFrequency 8.68e+08Hz
attr unit Hz
par LoRaNetwork.loRaNodes[3].LoRaNic.radio.transmitter bandwidth 250000Hz
attr unit Hz
par LoRaNetwork.loRaNodes[3].LoRaNic.radio.transmitter modulation "\"LoRaModulation\""
scalar LoRaNetwork.loRaNodes[3].LoRaNic.radio.transmitter LoRaTransmissionCreated:count 0
attr recordingmode count
attr source LoRaTransmissionCreated
par LoRaNetwork.loRaNodes[3].LoRaNic.radio.receiver typename "\"flora.LoRaPhy.LoRaReceiver\""
par LoRaNetwork.loRaNodes[3].LoRaNic.radio.receiver snirThreshold -8dB
attr unit dB
par LoRaNetwork.loRaNodes[3].LoRaNic.radio.receiver snirThresholdMode "\"min\""
attr unit min,mean
par LoRaNetwork.loRaNodes[3].LoRaNic.radio.receiver energyDetection -110dBm
attr unit dBm
par LoRaNetwork.loRaNodes[3].LoRaNic.radio.receiver sensitivity -137dBm
attr unit dBm
par LoRaNetwork.loRaNodes[3].LoRaNic.radio.receiver centerFrequency 8.68e+08Hz
attr unit Hz
par LoRaNetwork.loRaNodes[3].LoRaNic.radio.receiver bandwidth 250000Hz
attr unit Hz
par LoRaNetwork.loRaNodes[3].LoRaNic.radio.receiver modulation "\"BPSK\""
par LoRaNetwork.loRaNodes[3].LoRaNic.radio.receiver alohaChannelModel false
scalar LoRaNetwork.loRaNodes[3].LoRaNic.radio.receiver numCollisions 0
scalar LoRaNetwork.loRaNodes[3].LoRaNic.radio.receiver rcvBelowSensitivity 0
scalar LoRaNetwork.loRaNodes[3].LoRaNic.radio.receiver LoRaReceptionCollision:count 0
attr recordingmode count
attr source LoRaReceptionCollision
par LoRaNetwork.loRaNodes[3].LoRaNic.radio.energyConsumer typename "\"flora.LoRaEnergyModules.LoRaEnergyConsumer\""
par LoRaNetwork.loRaNodes[3].LoRaNic.radio.energyConsumer energySourceModule "\"^.IdealEpEnergyStorage\""
par LoRaNetwork.loRaNodes[3].LoRaNic.radio.energyConsumer offPowerConsumption 0W
attr unit W
par LoRaNetwork.loRaNodes[3].LoRaNic.radio.energyConsumer sleepPowerConsumption 0.001W
attr unit W
par LoRaNetwork.loRaNodes[3].LoRaNic.radio.energyConsumer switchingPowerConsumption 0.001W
attr unit W
par LoRaNetwork.loRaNodes[3].LoRaNic.radio.energyConsumer receiverIdlePowerConsumption 0.002W
attr unit W
par LoRaNetwork.loRaNodes[3].LoRaNic.radio.energyConsumer receiverBusyPowerConsumption 0.005W
attr unit W
par LoRaNetwork.loRaNodes[3].LoRaNic.radio.energyConsumer receiverReceivingPowerConsumption 0.01W
attr unit W
par LoRaNetwork.loRaNodes[3].LoRaNic.radio.energyConsumer receiverReceivingPreamblePowerConsumption 0.01W
attr unit W
par LoRaNetwork.loRaNodes[3].LoRaNic.radio.energyConsumer receiverReceivingHeaderPowerConsumption 0.01W
attr unit W
par LoRaNetwork.loRaNodes[3].LoRaNic.radio.energyConsumer receiverReceivingDataPowerConsumption 0.01W
attr unit W
par LoRaNetwork.loRaNodes[3].LoRaNic.radio.energyConsumer transmitterIdlePowerConsumption 0.002W
attr unit W
par LoRaNetwork.loRaNodes[3].LoRaNic.radio.energyConsumer transmitterTransmittingPowerConsumption 0.1W
attr unit W
par LoRaNetwork.loRaNodes[3].LoRaNic.radio.energyConsumer transmitterTransmittingPreamblePowerConsumption 0.1W
attr unit W
par LoRaNetwork.loRaNodes[3].LoRaNic.radio.energyConsumer transmitterTransmittingHeaderPowerConsumption 0.1W
attr unit W
par LoRaNetwork.loRaNodes[3].LoRaNic.radio.energyConsumer transmitterTransmittingDataPowerConsumption 0.1W
attr unit W
par LoRaNetwork.loRaNodes[3].LoRaNic.radio.energyConsumer configFile "<root>...</root> at /Users/hiro/LoRaPos/simulation/flora_simulation/loraSimulation//energyConsumptionParameters.xml:2"
[...]
attr source minimumSnir(packetSentToUpper)
attr title "Min SNIR"
bin	-inf	0
bin	0	0
bin	1	0
statistic LoRaNetwork.loRaGW[0].LoRaGWNic.radio packetErrorRate:histogram
field count 0
field mean nan
field stddev nan
field min nan
field max nan
field sum 0
field sqrsum 0
attr recordingmode histogram
attr source packetErrorRate(packetSentToUpper)
attr title "Packet error rate"
bin	-inf	0
bin	0	0
bin	1	0
statistic LoRaNetwork.loRaGW[0].LoRaGWNic.radio bitErrorRate:histogram
field count 0
field mean nan
field stddev nan
field min nan
field max nan
field sum 0
field sqrsum 0
attr recordingmode histogram
attr source bitErrorRate(packetSentToUpper)
attr title "Bit error rate"
bin	-inf	0
bin	0	0
bin	1	0
statistic LoRaNetwork.loRaGW[0].LoRaGWNic.radio symbolErrorRate:histogram
field count 0
field mean nan
field stddev nan
field min nan
field max nan
field sum 0
field sqrsum 0
attr recordingmode histogram
attr source symbolErrorRate(packetSentToUpper)
attr title "Symbol error rate"
bin	-inf	0
bin	0	0
bin	1	0
par LoRaNetwork.loRaGW[0].LoRaGWNic typename "\"flora.LoRa.LoRaGWNic\""
par LoRaNetwork.loRaGW[0].LoRaGWNic displayStringTextFormat "\"%a (%i)\\n%m\""
par LoRaNetwork.loRaGW[0].LoRaGWNic recordPcap false
par LoRaNetwork.loRaGW[0].LoRaGWNic numPcapRecorders 0
par LoRaNetwork.loRaGW[0].LoRaGWNic interfaceTableModule "\"LoRaNetwork.loRaGW[0].interfaceTable\""
par LoRaNetwork.loRaGW[0].LoRaGWNic energySourceModule "\"\""
par LoRaNetwork.loRaGW[0].LoRaGWNic protocol "\"\""
scalar LoRaNetwork.loRaGW[0].LoRaGWNic packetDropInterfaceDown:count 0
attr interpolationmode none
attr recordingmode count
attr source packetDropReasonIsInterfaceDown(packetDropped)
attr title "packet drops: interface down, count"
scalar LoRaNetwork.loRaGW[0].LoRaGWNic packetDropInterfaceDown:sum(packetBytes) 0
attr interpolationmode none
attr recordingmode sum(packetBytes)
attr source packetDropReasonIsInterfaceDown(packetDropped)
attr title "packet drops: interface down, sum(packetBytes)"
scalar LoRaNetwork.loRaGW[0].LoRaGWNic packetDropNoCarrier:count 0
attr interpolationmode none
attr recordingmode count
attr source packetDropReasonIsNoCarrier(packetDropped)
attr title "packet drops: no carrier, count"
scalar LoRaNetwork.loRaGW[0].LoRaGWNic packetDropNoCarrier:sum(packetBytes) 0
attr interpolationmode none
attr recordingmode sum(packetBytes)
attr source packetDropReasonIsNoCarrier(packetDropped)
attr title "packet drops: no carrier, sum(packetBytes)"
par LoRaNetwork.loRaGW[0].packetForwarder typename "\"flora.LoRa.PacketForwarder\""
par LoRaNetwork.loRaGW[0].packetForwarder localPort -1
par LoRaNetwork.loRaGW[0].packetForwarder destAddresses "\"\""
par LoRaNetwork.loRaGW[0].packetForwarder localAddress "\"\""
par LoRaNetwork.loRaGW[0].packetForwarder destPort 0
scalar LoRaNetwork.loRaGW[0].packetForwarder LoRa_GW_DER nan
scalar LoRaNetwork.loRaGW[0].packetForwarder LoRa_GWPacketReceived:count 0
attr recordingmode count
attr source LoRa_GWPacketReceived
par LoRaNetwork.loRaGW[0].udp typename "\"inet.transportlayer.udp.Udp\""
par LoRaNetwork.loRaGW[0].udp interfaceTableModule "\"LoRaNetwork.loRaGW[0].interfaceTable\""
par LoRaNetwork.loRaGW[0].udp icmpModule "\"^.ipv4.icmp\""
par LoRaNetwork.loRaGW[0].udp icmpv6Module "\"^.ipv6.icmpv6\""
par LoRaNetwork.loRaGW[0].udp crcMode "\"declared\""
attr enum disabled,declared,computed
par LoRaNetwork.loRaGW[0].udp defaultMulticastLoop true
scalar LoRaNetwork.loRaGW[0].udp packetReceived:count 0
attr interpolationmode none
attr recordingmode count
attr source packetReceived
attr title "packets received, count"
scalar LoRaNetwork.loRaGW[0].udp packetReceived:sum(packetBytes) 0
attr interpolationmode none
attr recordingmode sum(packetBytes)
attr source packetReceived
attr title "packets received, sum(packetBytes)"
scalar LoRaNetwork.loRaGW[0].udp packetSent:count 0
attr interpolationmode none
attr recordingmode count
attr source packetSent
attr title "packets sent, count"
scalar LoRaNetwork.loRaGW[0].udp packetSent:sum(packetBytes) 0
attr interpolationmode none
attr recordingmode sum(packetBytes)
attr source packetSent
attr title "packets sent, sum(packetBytes)"
scalar LoRaNetwork.loRaGW[0].udp passedUpPk:count 0
attr interpolationmode none
attr recordingmode count
attr source packetSentToUpper
attr title "packets passed up, count"
scalar LoRaNetwork.loRaGW[0].udp droppedPkWrongPort:count 0
attr interpolationmode none
attr recordingmode count
attr source packetDropReasonIsNoPortFound(packetDropped)
attr title "packets dropped (wrong port), count"
scalar LoRaNetwork.loRaGW[0].udp droppedPkBadChecksum:count 0
attr interpolationmode none
attr recordingmode count
attr source packetDropReasonIsIncorrectlyReceived(packetDropped)
attr title "packets dropped (checksum error), count"
par LoRaNetwork.loRaGW[0].ipv4.transportIn.channel typename "\"ned.IdealChannel\""
par LoRaNetwork.loRaGW[0].ipv4.up.out[0].channel typename "\"ned.IdealChannel\""
par LoRaNetwork.loRaGW[0].ipv4.lp.out[2].channel typename "\"ned.IdealChannel\""
par LoRaNetwork.loRaGW[0].ipv4.ifIn.channel typename "\"ned.IdealChannel\""
par LoRaNetwork.loRaGW[0].ipv4.configurator typename "\"inet.networklayer.configurator.ipv4.Ipv4NodeConfigurator\""
par LoRaNetwork.loRaGW[0].ipv4.configurator interfaceTableModule "\"LoRaNetwork.loRaGW[0].interfaceTable\""
par LoRaNetwork.loRaGW[0].ipv4.configurator routingTableModule "\"LoRaNetwork.loRaGW[0].ipv4.routingTable\""
par LoRaNetwork.loRaGW[0].ipv4.configurator networkConfiguratorModule "\"configurator\""
par LoRaNetwork.loRaGW[0].ipv4.configurator configureRoutingTable true
par LoRaNetwork.loRaGW[0].ipv4.routingTable typename "\"inet.networklayer.ipv4.Ipv4RoutingTable\""
par LoRaNetwork.loRaGW[0].ipv4.routingTable interfaceTableModule "\"LoRaNetwork.loRaGW[0].interfaceTable\""
par LoRaNetwork.loRaGW[0].ipv4.routingTable routerId "\"auto\""
par LoRaNetwork.loRaGW[0].ipv4.routingTable netmaskRoutes "\"*\""
par LoRaNetwork.loRaGW[0].ipv4.routingTable forwarding false
par LoRaNetwork.loRaGW[0].ipv4.routingTable multicastForwarding false
par LoRaNetwork.loRaGW[0].ipv4.routingTable useAdminDist false
par LoRaNetwork.loRaGW[0].ipv4.routingTable routingFile "\"\""
par LoRaNetwork.loRaGW[0].ipv4.natTable typename "\"inet.networklayer.ipv4.Ipv4NatTable\""
par LoRaNetwork.loRaGW[0].ipv4.natTable networkProtocolModule "\"^.ip\""
par LoRaNetwork.loRaGW[0].ipv4.natTable config "<config/> at content:1"
par LoRaNetwork.loRaGW[0].ipv4.up typename "\"inet.common.MessageDispatcher\""
par LoRaNetwork.loRaGW[0].ipv4.up displayStringTextFormat "\"processed %p pk (%l)\""
par LoRaNetwork.loRaGW[0].ipv4.up forwardServiceRegistration true
par LoRaNetwork.loRaGW[0].ipv4.up forwardProtocolRegistration true
par LoRaNetwork.loRaGW[0].ipv4.igmp typename "\"inet.networklayer.ipv4.Igmpv2\""
par LoRaNetwork.loRaGW[0].ipv4.igmp interfaceTableModule "\"LoRaNetwork.loRaGW[0].interfaceTable\""
par LoRaNetwork.loRaGW[0].ipv4.igmp routingTableModule "\"LoRaNetwork.loRaGW[0].ipv4.routingTable\""
par LoRaNetwork.loRaGW[0].ipv4.igmp crcMode "\"declared\""
attr enum declared,computed
par LoRaNetwork.loRaGW[0].ipv4.igmp enabled true
par LoRaNetwork.loRaGW[0].ipv4.igmp robustnessVariable 2
par LoRaNetwork.loRaGW[0].ipv4.igmp queryInterval 125s
attr unit s
par LoRaNetwork.loRaGW[0].ipv4.igmp queryResponseInterval 10s
attr unit s
par LoRaNetwork.loRaGW[0].ipv4.igmp groupMembershipInterval 260s
attr unit s
par LoRaNetwork.loRaGW[0].ipv4.igmp otherQuerierPresentInterval 255s
attr unit s
par LoRaNetwork.loRaGW[0].ipv4.igmp startupQueryInterval 31.25s
attr unit s
par LoRaNetwork.loRaGW[0].ipv4.igmp startupQueryCount 2
par LoRaNetwork.loRaGW[0].ipv4.igmp lastMemberQueryInterval 1s
attr unit s
par LoRaNetwork.loRaGW[0].ipv4.igmp lastMemberQueryCount 2
par LoRaNetwork.loRaGW[0].ipv4.igmp unsolicitedReportInterval 10s
attr unit s
par LoRaNetwork.loRaGW[0].ipv4.icmp typename "\"inet.networklayer.ipv4.Icmp\""
par LoRaNetwork.loRaGW[0].ipv4.icmp interfaceTableModule "\"LoRaNetwork.loRaGW[0].interfaceTable\""
par LoRaNetwork.loRaGW[0].ipv4.icmp routingTableModule "\"LoRaNetwork.loRaGW[0].ipv4.routingTable\""
par LoRaNetwork.loRaGW[0].ipv4.icmp crcMode "\"declared\""
attr enum declared,computed
attr mutable ""
par LoRaNetwork.loRaGW[0].ipv4.icmp quoteLength 8B
attr mutable ""
attr unit B
par LoRaNetwork.loRaGW[0].ipv4.mp typename "\"inet.common.MessageDispatcher\""
par LoRaNetwork.loRaGW[0].ipv4.mp displayStringTextFormat "\"processed %p pk (%l)\""
par LoRaNetwork.loRaGW[0].ipv4.mp forwardServiceRegistration true
par LoRaNetwork.loRaGW[0].ipv4.mp forwardProtocolRegistration true
par LoRaNetwork.loRaGW[0].ipv4.ip typename "\"inet.networklayer.ipv4.Ipv4\""
par LoRaNetwork.loRaGW[0].ipv4.ip interfaceTableModule "\"LoRaNetwork.loRaGW[0].interfaceTable\""
par LoRaNetwork.loRaGW[0].ipv4.ip routingTableModule "\"LoRaNetwork.loRaGW[0].ipv4.routingTable\""
par LoRaNetwork.loRaGW[0].ipv4.ip arpModule "\"LoRaNetwork.loRaGW[0].ipv4.arp\""
par LoRaNetwork.loRaGW[0].ipv4.ip icmpModule "\"LoRaNetwork.loRaGW[0].ipv4.icmp\""
par LoRaNetwork.loRaGW[0].ipv4.ip crcMode "\"declared\""
attr enum declared,computed
par LoRaNetwork.loRaGW[0].ipv4.ip timeToLive 32
par LoRaNetwork.loRaGW[0].ipv4.ip multicastTimeToLive 32
par LoRaNetwork.loRaGW[0].ipv4.ip fragmentTimeout 60s
attr unit s
par LoRaNetwork.loRaGW[0].ipv4.ip limitedBroadcast false
par LoRaNetwork.loRaGW[0].ipv4.ip directBroadcastInterfaces "\"\""
scalar LoRaNetwork.loRaGW[0].ipv4.ip packetDropAddressResolutionFailed:count 0
attr interpolationmode none
attr recordingmode count
attr source packetDropReasonIsAddressResolutionFailed(packetDropped)
attr title "packet drop: address resolution failed, count"
scalar LoRaNetwork.loRaGW[0].ipv4.ip packetDropAddressResolutionFailed:sum(packetBytes) 0
attr interpolationmode none
attr recordingmode sum(packetBytes)
attr source packetDropReasonIsAddressResolutionFailed(packetDropped)
attr title "packet drop: address resolution failed, sum(packetBytes)"
scalar LoRaNetwork.loRaGW[0].ipv4.ip packetDropHopLimitReached:count 0
attr interpolationmode none
attr recordingmode count
attr source packetDropReasonIsHopLimitReached(packetDropped)
attr title "packet drop: hop limit reached, count"
scalar LoRaNetwork.loRaGW[0].ipv4.ip packetDropHopLimitReached:sum(packetBytes) 0
attr interpolationmode none
attr recordingmode sum(packetBytes)
attr source packetDropReasonIsHopLimitReached(packetDropped)
attr title "packet drop: hop limit reached, sum(packetBytes)"
scalar LoRaNetwork.loRaGW[0].ipv4.ip packetDropForwardingDisabled:count 0
attr interpolationmode none
attr recordingmode count
attr source packetDropReasonIsForwardingDisabled(packetDropped)
attr title "packet drop: forwarding disabled, count"
scalar LoRaNetwork.loRaGW[0].ipv4.ip packetDropForwardingDisabled:sum(packetBytes) 0
attr interpolationmode none
attr recordingmode sum(packetBytes)
attr source packetDropReasonIsForwardingDisabled(packetDropped)
attr title "packet drop: forwarding disabled, sum(packetBytes)"
scalar LoRaNetwork.loRaGW[0].ipv4.ip packetDropNoInterfaceFound:count 0
attr interpolationmode none
attr recordingmode count
attr source packetDropReasonIsNoInterfaceFound(packetDropped)
attr title "packet drop: no interface found, count"
scalar LoRaNetwork.loRaGW[0].ipv4.ip packetDropNoInterfaceFound:sum(packetBytes) 0
attr interpolationmode none
attr recordingmode sum(packetBytes)
attr source packetDropReasonIsNoInterfaceFound(packetDropped)
attr title "packet drop: no interface found, sum(packetBytes)"
scalar LoRaNetwork.loRaGW[0].ipv4.ip packetDropNoRouteFound:count 0
attr interpolationmode none
attr recordingmode count
attr source packetDropReasonIsNoRouteFound(packetDropped)
attr title "packet drop: no route found, count"
scalar LoRaNetwork.loRaGW[0].ipv4.ip packetDropNoRouteFound:sum(packetBytes) 0
attr interpolationmode none
attr recordingmode sum(packetBytes)
attr source packetDropReasonIsNoRouteFound(packetDropped)
attr title "packet drop: no route found, sum(packetBytes)"
scalar LoRaNetwork.loRaGW[0].ipv4.ip packetDropUndefined:count 0
attr interpolationmode none
attr recordingmode count
attr source packetDropReasonIsUndefined(packetDropped)
attr title "packet drop: undefined, count"
scalar LoRaNetwork.loRaGW[0].ipv4.ip packetDropUndefined:sum(packetBytes) 0
attr interpolationmode none
attr recordingmode sum(packetBytes)
attr source packetDropReasonIsUndefined(packetDropped)
attr title "packet drop: undefined, sum(packetBytes)"
par LoRaNetwork.loRaGW[0].ipv4.arp typename "\"inet.networklayer.arp.ipv4.Arp\""
par LoRaNetwork.loRaGW[0].ipv4.arp interfaceTableModule "\"LoRaNetwork.loRaGW[0].interfaceTable\""
par LoRaNetwork.loRaGW[0].ipv4.arp routingTableModule "\"LoRaNetwork.loRaGW[0].ipv4.routingTable\""
par LoRaNetwork.loRaGW[0].ipv4.arp retryTimeout 1s
attr unit s
par LoRaNetwork.loRaGW[0].ipv4.arp retryCount 3
par LoRaNetwork.loRaGW[0].ipv4.arp cacheTimeout 120s
attr unit s
par LoRaNetwork.loRaGW[0].ipv4.arp proxyArpInterfaces "\"*\""
scalar LoRaNetwork.loRaGW[0].ipv4.arp arpResolutionFailed:count 0
attr recordingmode count
attr title "ARP failed resolutions, count"
scalar LoRaNetwork.loRaGW[0].ipv4.arp arpResolutionCompleted:count 0
attr recordingmode count
attr title "ARP completed resolutions, count"
scalar LoRaNetwork.loRaGW[0].ipv4.arp arpResolutionInitiated:count 0
attr recordingmode count
attr title "ARP initiated resolutions, count"
scalar LoRaNetwork.loRaGW[0].ipv4.arp arpReplySent:count 0
attr recordingmode count
attr source arpReplySent
attr title "ARP replies sent, count"
scalar LoRaNetwork.loRaGW[0].ipv4.arp arpReplySent:sum(packetBytes) 0
attr recordingmode sum(packetBytes)
attr source arpReplySent
attr title "ARP replies sent, sum(packetBytes)"
scalar LoRaNetwork.loRaGW[0].ipv4.arp arpRequestSent:count 0
attr recordingmode count
attr source arpRequestSent
attr title "ARP request sent, count"
scalar LoRaNetwork.loRaGW[0].ipv4.arp arpRequestSent:sum(packetBytes) 0
attr recordingmode sum(packetBytes)
attr source arpRequestSent
attr title "ARP request sent, sum(packetBytes)"
par LoRaNetwork.loRaGW[0].ipv4.lp typename "\"inet.common.MessageDispatcher\""
par LoRaNetwork.loRaGW[0].ipv4.lp displayStringTextFormat "\"processed %p pk (%l)\""
par LoRaNetwork.loRaGW[0].ipv4.lp forwardServiceRegistration true
par LoRaNetwork.loRaGW[0].ipv4.lp forwardProtocolRegistration true
par LoRaNetwork.loRaGW[0].ipv4 typename "\"inet.networklayer.ipv4.Ipv4NetworkLayer\""
par LoRaNetwork.loRaGW[0].ipv4 forwarding false
par LoRaNetwork.loRaGW[0].ipv4 multicastForwarding false
par LoRaNetwork.loRaGW[0].ipv4 interfaceTableModule "\"LoRaNetwork.loRaGW[0].interfaceTable\""
par LoRaNetwork.loRaGW[0].ipv4 displayStringTextFormat "\"%i\""
par LoRaNetwork.loRaGW[0].routingTable typename "\"inet.networklayer.ipv4.Ipv4RoutingTable\""
par LoRaNetwork.loRaGW[0].routingTable interfaceTableModule "\"LoRaNetwork.loRaGW[0].interfaceTable\""
par LoRaNetwork.loRaGW[0].routingTable routerId "\"auto\""
par LoRaNetwork.loRaGW[0].routingTable netmaskRoutes "\"*\""
par LoRaNetwork.loRaGW[0].routingTable forwarding true
par LoRaNetwork.loRaGW[0].routingTable multicastForwarding false
par LoRaNetwork.loRaGW[0].routingTable useAdminDist false
par LoRaNetwork.loRaGW[0].routingTable routingFile "\"\""
par LoRaNetwork.loRaGW[0] typename "\"flora.LoraNode.LoRaGW\""
par LoRaNetwork.loRaGW[0] numEthInterfaces 0
par LoRaNetwork.loRaGW[0] numWlanInterfaces 1
par LoRaNetwork.loRaGW[0] hasIpv4 true
par LoRaNetwork.loRaGW[0] networkLayerType "\"Ipv4NetworkLayer\""
par LoRaNetwork.loRaGW[0] routingTableType "\"Ipv4RoutingTable\""
par LoRaNetwork.loRaGW[0] numUdpApps 0
par LoRaNetwork.loRaGW[0] hasUdp true
par LoRaNetwork.loRaGW[0] udpType "\"\""
par LoRaNetwork.LoRaMedium.propagation typename "\"inet.physicallayer.wireless.common.propagation.ConstantSpeedPropagation\""
par LoRaNetwork.LoRaMedium.propagation propagationSpeed 2.99792e+08mps
attr unit mps
par LoRaNetwork.LoRaMedium.propagation ignoreMovementDuringTransmission true
par LoRaNetwork.LoRaMedium.propagation ignoreMovementDuringPropagation true
par LoRaNetwork.LoRaMedium.propagation ignoreMovementDuringReception true
scalar LoRaNetwork.LoRaMedium.propagation "Arrival computation count" 0
par LoRaNetwork.LoRaMedium.analogModel typename "\"flora.LoRaPhy.LoRaAnalogModel\""
par LoRaNetwork.LoRaMedium.analogModel ignorePartialInterference false
par LoRaNetwork.LoRaMedium.backgroundNoise typename "\"inet.physicallayer.wireless.common.backgroundnoise.DimensionalBackgroundNoise\""
par LoRaNetwork.LoRaMedium.backgroundNoise gainFunctionCacheLimit 0
par LoRaNetwork.LoRaMedium.backgroundNoise timeGains "\"left 0s 0dB left\""
par LoRaNetwork.LoRaMedium.backgroundNoise timeGainsNormalization "\"\""
attr enum ,maximum,integral
par LoRaNetwork.LoRaMedium.backgroundNoise frequencyGains "\"left 0Hz 0dB left\""
par LoRaNetwork.LoRaMedium.backgroundNoise frequencyGainsNormalization "\"integral\""
attr enum ,maximum,integral
par LoRaNetwork.LoRaMedium.backgroundNoise power -96.616dBm
attr unit dBm
par LoRaNetwork.LoRaMedium.pathLoss typename "\"flora.LoRaPhy.LoRaLogNormalShadowing\""
par LoRaNetwork.LoRaMedium.pathLoss alpha 2
par LoRaNetwork.LoRaMedium.pathLoss systemLoss 0dB
attr unit dB
par LoRaNetwork.LoRaMedium.pathLoss d0 40m
attr unit m
par LoRaNetwork.LoRaMedium.pathLoss gamma 2.08
par LoRaNetwork.LoRaMedium.pathLoss sigma 3.57
par LoRaNetwork.LoRaMedium.mediumLimitCache typename "\"inet.physicallayer.wireless.common.medium.MediumLimitCache\""
par LoRaNetwork.LoRaMedium.mediumLimitCache centerFrequency "nan Hz"
attr unit Hz
par LoRaNetwork.LoRaMedium.mediumLimitCache maxSpeed "nan mps"
attr unit mps
par LoRaNetwork.LoRaMedium.mediumLimitCache maxTransmissionPower "nan W"
attr unit W
par LoRaNetwork.LoRaMedium.mediumLimitCache minInterferencePower "nan dBm"
attr unit dBm
par LoRaNetwork.LoRaMedium.mediumLimitCache minReceptionPower "nan dBm"
attr unit dBm
par LoRaNetwork.LoRaMedium.mediumLimitCache maxAntennaGain 0dB
attr unit dB
par LoRaNetwork.LoRaMedium.mediumLimitCache minInterferenceTime 0s
attr unit s
par LoRaNetwork.LoRaMedium.mediumLimitCache maxTransmissionDuration 4s
attr unit s
par LoRaNetwork.LoRaMedium.mediumLimitCache maxCommunicationRange "nan m"
attr unit m
par LoRaNetwork.LoRaMedium.mediumLimitCache maxInterferenceRange "nan m"
attr unit m
par LoRaNetwork.LoRaMedium.communicationCache typename "\"inet.physicallayer.wireless.common.communicationcache.VectorCommunicationCache\""
par LoRaNetwork.LoRaMedium typename "\"flora.LoRaPhy.LoRaMedium\""
par LoRaNetwork.LoRaMedium physicalEnvironmentModule "\"physicalEnvironment\""
par LoRaNetwork.LoRaMedium signalAnalogRepresentation "\"scalar\""
attr enum unitDisk,scalar,dimensional
par LoRaNetwork.LoRaMedium rangeFilter "\"communicationRange\""
par LoRaNetwork.LoRaMedium radioModeFilter false
par LoRaNetwork.LoRaMedium listeningFilter false
par LoRaNetwork.LoRaMedium macAddressFilter false
par LoRaNetwork.LoRaMedium recordTransmissionLog false
par LoRaNetwork.LoRaMedium recordReceptionLog false
scalar LoRaNetwork.LoRaMedium "transmission count" 0
scalar LoRaNetwork.LoRaMedium "signal send count" 0
scalar LoRaNetwork.LoRaMedium "reception computation count" 0
scalar LoRaNetwork.LoRaMedium "interference computation count" 6
scalar LoRaNetwork.LoRaMedium "reception decision computation count" 0
scalar LoRaNetwork.LoRaMedium "listening decision computation count" 6
scalar LoRaNetwork.LoRaMedium "reception cache hit" nan
attr unit %
scalar LoRaNetwork.LoRaMedium "interference cache hit" nan
attr unit %
scalar LoRaNetwork.LoRaMedium "noise cache hit" nan
attr unit %
scalar LoRaNetwork.LoRaMedium "snir cache hit" nan
attr unit %
scalar LoRaNetwork.LoRaMedium "reception decision cache hit" nan
attr unit %
scalar LoRaNetwork.LoRaMedium "reception result cache hit" nan
attr unit %
par LoRaNetwork typename "\"loraSimulation.LoRaNetwork\""
par LoRaNetwork numberOfNodes 4
par LoRaNetwork numberOfGateways 1
par LoRaNetwork networkSizeX 500
par LoRaNetwork networkSizeY 500

