file 664077595 1684439099                                       
version 3
run General-0-20230518-18:36:21-53244
attr configname General
attr datetime 20230518-18:36:21
attr datetimef 20230518-183621
attr experiment General
attr inifile n10-gw1-noADR_straight.ini
attr iterationvars "$0=\"avg\""
attr iterationvarsd avg
attr iterationvarsf avg-
attr measurement "$0=\"avg\""
attr network loraSimulation.LoRaNetwork_straight
attr processid 53244
attr repetition 0
attr replication #0
attr resultdir results
attr runnumber 0
attr seedset 0
config image-path ../../../../../Downloads/omnetpp-6.0.1/samples/inet4.4/images
config network loraSimulation.LoRaNetwork_straight
config output-vector-file ../results/n10-gw1-noADR-straight-s0.ini.vec
config record-eventlog true
config **.maxTransmissionDuration 4s
config **.energyDetection -110dBm
config **.vector-recording true
config rng-class cMersenneTwister
config **.loRaGW_straight[*].numUdpApps 1
config **.loRaGW_straight[0].packetForwarder.localPort 2000
config **.loRaGW_straight[0].packetForwarder.destPort 1000
config **.loRaGW_straight[0].packetForwarder.destAddresses "\"networkServer\""
config **.loRaGW_straight[0].packetForwarder.indexNumber 0
config **.networkServer.numApps 1
config **.networkServer.**.evaluateADRinServer false
config **.networkServer.app[0].typename NetworkServerApp
config **.networkServer.app[0].destAddresses "\"loRaGW[0]\""
config **.networkServer.app[0].destPort 2000
config **.networkServer.app[0].localPort 1000
config **.networkServer.app[0].adrMethod "\"avg\""
config **.loRaNodes[0].app[0].numberOfPacketsToSend 550
config **.loRaNodes[1].app[0].numberOfPacketsToSend 570
config **.loRaNodes[2].app[0].numberOfPacketsToSend 590
config **.loRaNodes[3].app[0].numberOfPacketsToSend 610
config **.loRaNodes[4].app[0].numberOfPacketsToSend 630
config **.loRaNodes[5].app[0].numberOfPacketsToSend 650
config **.loRaNodes[6].app[0].numberOfPacketsToSend 670
config **.loRaNodes[7].app[0].numberOfPacketsToSend 690
config **.loRaNodes[8].app[0].numberOfPacketsToSend 710
config **.loRaNodes[9].app[0].numberOfPacketsToSend 730
config sim-time-limit 1d
config simtime-resolution -11
config repeat 1
config **.timeToFirstPacket exponential(10s)
config **.timeToNextPacket exponential(10s)
config **.alohaChannelModel false
config **.loRaNodes[*].**.initFromDisplayString false
config **.loRaNodes[*].**.evaluateADRinNode false
config **.loRaNodes[*].**initialLoRaBW "500 kHz"
config **.loRaNodes[*].**initialLoRaCR 4
config **.loRaNodes[*].**initialLoRaSF 7
config **.loRaNodes[*].numApps 1
config **.loRaNodes[*].app[0].typename SimpleLoRaApp
config **.LoRaGWNic.radio.iAmGateway true
config **.loRaGW_straight[*].**.initFromDisplayString false
config **.loRaNodes[*].LoRaNic.radio.energyConsumer.typename LoRaEnergyConsumer
config **.loRaNodes[*].**.energySourceModule "\"^.IdealEpEnergyStorage\""
config **.loRaNodes[*].LoRaNic.radio.energyConsumer.configFile "xmldoc(\"../energyConsumptionParameters.xml\")"
config **.sigma 3.57
config LoRaNetwork_straight.**.radio.separateTransmissionParts false
config LoRaNetwork_straight.**.radio.separateReceptionParts false
config **.ipv4Delayer.config "xmldoc(\"../cloudDelays.xml\")"
config **.radio.radioMediumModule "\"LoRaMedium\""
config **.LoRaMedium.pathLoss.typename NakagamiFading
config **.minInterferenceTime 0s
config **.displayAddresses false
config **.numberOfNodes 10
config **.numberOfGateways 1
config output-scalar-file ../results/n10-gw1-noADR-straight-s0.ini.sca
config **.loRaGW_straight[0].**.traceFile "\"straight_bonn.xml\""
config **.loRaGW_straight[0].**.is3D true
config **.loRaNodes[0].**.initialX 822.0194698360865m
config **.loRaNodes[0].**.initialY 739.4046194171533m
config **.loRaNodes[0].**.initialZ 23m
config **.loRaNodes[1].**.initialX 263.9939801048604m
config **.loRaNodes[1].**.initialY 299.80550314765424m
config **.loRaNodes[1].**.initialZ 23m
config **.loRaNodes[2].**.initialX 468.6109037408023m
config **.loRaNodes[2].**.initialY 606.6390164084733m
config **.loRaNodes[2].**.initialZ 23m
config **.loRaNodes[3].**.initialX 677.377121595724m
config **.loRaNodes[3].**.initialY 311.6158274188638m
config **.loRaNodes[3].**.initialZ 5.1m
config **.loRaNodes[4].**.initialX 734.4841017249855m
config **.loRaNodes[4].**.initialY 487.4600875368342m
config **.loRaNodes[4].**.initialZ 23m
config **.loRaNodes[5].**.initialX 714.6851075206068m
config **.loRaNodes[5].**.initialY 205.09913122281432m
config **.loRaNodes[5].**.initialZ 19m
config **.loRaNodes[6].**.initialX 403.5160410553799m
config **.loRaNodes[6].**.initialY 136.8531596083194m
config **.loRaNodes[6].**.initialZ 23m
config **.loRaNodes[7].**.initialX 220.07116886903532m
config **.loRaNodes[7].**.initialY 212.38414978329092m
config **.loRaNodes[7].**.initialZ 23m
config **.loRaNodes[8].**.initialX 108.28748674801318m
config **.loRaNodes[8].**.initialY 581.6178667871282m
config **.loRaNodes[8].**.initialZ 19m
config **.loRaNodes[9].**.initialX 511.31633024220355m
config **.loRaNodes[9].**.initialY 295.69291112665087m
config **.loRaNodes[9].**.initialZ 23m
config **.LoRaMedium.obstacleLoss.typename DielectricObstacleLoss
config *.physicalEnvironment.config "xmldoc(\"buildings_pyproj.xml\")"

vector 0 LoRaNetwork_straight.loRaGW_straight[0].udp passedUpPk:vector(count) ETV
attr interpolationmode none
attr recordingmode vector(count)
attr source packetSentToUpper
attr title "packets passed up, count"
vector 1 LoRaNetwork_straight.loRaGW_straight[0].udp droppedPkWrongPort:vector(count) ETV
attr interpolationmode none
attr recordingmode vector(count)
attr source packetDropReasonIsNoPortFound(packetDropped)
attr title "packets dropped (wrong port), count"
vector 2 LoRaNetwork_straight.loRaGW_straight[0].udp droppedPkBadChecksum:vector(count) ETV
attr interpolationmode none
attr recordingmode vector(count)
attr source packetDropReasonIsIncorrectlyReceived(packetDropped)
attr title "packets dropped (checksum error), count"
vector 3 LoRaNetwork_straight.networkServer.udp passedUpPk:vector(count) ETV
attr interpolationmode none
attr recordingmode vector(count)
attr source packetSentToUpper
attr title "packets passed up, count"
vector 4 LoRaNetwork_straight.networkServer.udp droppedPkWrongPort:vector(count) ETV
attr interpolationmode none
attr recordingmode vector(count)
attr source packetDropReasonIsNoPortFound(packetDropped)
attr title "packets dropped (wrong port), count"
vector 5 LoRaNetwork_straight.networkServer.udp droppedPkBadChecksum:vector(count) ETV
attr interpolationmode none
attr recordingmode vector(count)
attr source packetDropReasonIsIncorrectlyReceived(packetDropped)
attr title "packets dropped (checksum error), count"
vector 6 LoRaNetwork_straight.internetCloud.ppp[0].ppp transmissionState:vector ETV
attr interpolationmode sample-hold
attr recordingmode vector
attr source transmissionStateChanged
attr title "tx state"
vector 7 LoRaNetwork_straight.internetCloud.ppp[1].ppp transmissionState:vector ETV
attr interpolationmode sample-hold
attr recordingmode vector
attr source transmissionStateChanged
attr title "tx state"
vector 8 LoRaNetwork_straight.gwRouter[0].ppp[0].ppp transmissionState:vector ETV
attr interpolationmode sample-hold
attr recordingmode vector
attr source transmissionStateChanged
attr title "tx state"
vector 9 LoRaNetwork_straight.nsRouter.ppp[0].ppp transmissionState:vector ETV
attr interpolationmode sample-hold
attr recordingmode vector
attr source transmissionStateChanged
attr title "tx state"
vector 10 LoRaNetwork_straight.loRaNodes[0].LoRaNic.radio.IdealEpEnergyStorage powerConsumption:vector ETV
attr interpolationmode sample-hold
attr recordingmode vector
attr source powerConsumptionChanged
attr title "Power consumption"
vector 11 LoRaNetwork_straight.loRaNodes[1].LoRaNic.radio.IdealEpEnergyStorage powerConsumption:vector ETV
attr interpolationmode sample-hold
attr recordingmode vector
attr source powerConsumptionChanged
attr title "Power consumption"
vector 12 LoRaNetwork_straight.loRaNodes[2].LoRaNic.radio.IdealEpEnergyStorage powerConsumption:vector ETV
attr interpolationmode sample-hold
attr recordingmode vector
attr source powerConsumptionChanged
attr title "Power consumption"
vector 13 LoRaNetwork_straight.loRaNodes[3].LoRaNic.radio.IdealEpEnergyStorage powerConsumption:vector ETV
attr interpolationmode sample-hold
attr recordingmode vector
attr source powerConsumptionChanged
attr title "Power consumption"
vector 14 LoRaNetwork_straight.loRaNodes[4].LoRaNic.radio.IdealEpEnergyStorage powerConsumption:vector ETV
attr interpolationmode sample-hold
attr recordingmode vector
attr source powerConsumptionChanged
attr title "Power consumption"
vector 15 LoRaNetwork_straight.loRaNodes[5].LoRaNic.radio.IdealEpEnergyStorage powerConsumption:vector ETV
attr interpolationmode sample-hold
attr recordingmode vector
attr source powerConsumptionChanged
attr title "Power consumption"
vector 16 LoRaNetwork_straight.loRaNodes[6].LoRaNic.radio.IdealEpEnergyStorage powerConsumption:vector ETV
attr interpolationmode sample-hold
attr recordingmode vector
attr source powerConsumptionChanged
attr title "Power consumption"
vector 17 LoRaNetwork_straight.loRaNodes[7].LoRaNic.radio.IdealEpEnergyStorage powerConsumption:vector ETV
attr interpolationmode sample-hold
attr recordingmode vector
attr source powerConsumptionChanged
attr title "Power consumption"
vector 18 LoRaNetwork_straight.loRaNodes[8].LoRaNic.radio.IdealEpEnergyStorage powerConsumption:vector ETV
attr interpolationmode sample-hold
attr recordingmode vector
attr source powerConsumptionChanged
attr title "Power consumption"
vector 19 LoRaNetwork_straight.loRaNodes[9].LoRaNic.radio.IdealEpEnergyStorage powerConsumption:vector ETV
attr interpolationmode sample-hold
attr recordingmode vector
attr source powerConsumptionChanged
attr title "Power consumption"
vector 20 LoRaNetwork_straight.loRaNodes[0].LoRaNic.radio radioMode:vector ETV
attr interpolationmode sample-hold
attr recordingmode vector
attr source radioModeChanged
attr title "Radio mode"
vector 21 LoRaNetwork_straight.loRaNodes[0].LoRaNic.radio.energyConsumer powerConsumption:vector ETV
attr interpolationmode sample-hold
attr recordingmode vector
attr source powerConsumptionChanged
attr title "Power consumption"
vector 22 LoRaNetwork_straight.loRaNodes[1].LoRaNic.radio radioMode:vector ETV
attr interpolationmode sample-hold
attr recordingmode vector
attr source radioModeChanged
attr title "Radio mode"
vector 23 LoRaNetwork_straight.loRaNodes[1].LoRaNic.radio.energyConsumer powerConsumption:vector ETV
attr interpolationmode sample-hold
attr recordingmode vector
attr source powerConsumptionChanged
attr title "Power consumption"
vector 24 LoRaNetwork_straight.loRaNodes[2].LoRaNic.radio radioMode:vector ETV
attr interpolationmode sample-hold
attr recordingmode vector
attr source radioModeChanged
attr title "Radio mode"
vector 25 LoRaNetwork_straight.loRaNodes[2].LoRaNic.radio.energyConsumer powerConsumption:vector ETV
attr interpolationmode sample-hold
attr recordingmode vector
attr source powerConsumptionChanged
attr title "Power consumption"
vector 26 LoRaNetwork_straight.loRaNodes[3].LoRaNic.radio radioMode:vector ETV
attr interpolationmode sample-hold
attr recordingmode vector
attr source radioModeChanged
attr title "Radio mode"
vector 27 LoRaNetwork_straight.loRaNodes[3].LoRaNic.radio.energyConsumer powerConsumption:vector ETV
attr interpolationmode sample-hold
attr recordingmode vector
attr source powerConsumptionChanged
attr title "Power consumption"
vector 28 LoRaNetwork_straight.loRaNodes[4].LoRaNic.radio radioMode:vector ETV
attr interpolationmode sample-hold
attr recordingmode vector
attr source radioModeChanged
attr title "Radio mode"
vector 29 LoRaNetwork_straight.loRaNodes[4].LoRaNic.radio.energyConsumer powerConsumption:vector ETV
attr interpolationmode sample-hold
attr recordingmode vector
attr source powerConsumptionChanged
attr title "Power consumption"
vector 30 LoRaNetwork_straight.loRaNodes[5].LoRaNic.radio radioMode:vector ETV
attr interpolationmode sample-hold
attr recordingmode vector
attr source radioModeChanged
attr title "Radio mode"
vector 31 LoRaNetwork_straight.loRaNodes[5].LoRaNic.radio.energyConsumer powerConsumption:vector ETV
attr interpolationmode sample-hold
attr recordingmode vector
attr source powerConsumptionChanged
attr title "Power consumption"
vector 32 LoRaNetwork_straight.loRaNodes[6].LoRaNic.radio radioMode:vector ETV
attr interpolationmode sample-hold
attr recordingmode vector
attr source radioModeChanged
attr title "Radio mode"
vector 33 LoRaNetwork_straight.loRaNodes[6].LoRaNic.radio.energyConsumer powerConsumption:vector ETV
attr interpolationmode sample-hold
attr recordingmode vector
attr source powerConsumptionChanged
attr title "Power consumption"
vector 34 LoRaNetwork_straight.loRaNodes[7].LoRaNic.radio radioMode:vector ETV
attr interpolationmode sample-hold
attr recordingmode vector
attr source radioModeChanged
attr title "Radio mode"
vector 35 LoRaNetwork_straight.loRaNodes[7].LoRaNic.radio.energyConsumer powerConsumption:vector ETV
attr interpolationmode sample-hold
attr recordingmode vector
attr source powerConsumptionChanged
attr title "Power consumption"
vector 36 LoRaNetwork_straight.loRaNodes[8].LoRaNic.radio radioMode:vector ETV
attr interpolationmode sample-hold
attr recordingmode vector
attr source radioModeChanged
attr title "Radio mode"
vector 37 LoRaNetwork_straight.loRaNodes[8].LoRaNic.radio.energyConsumer powerConsumption:vector ETV
attr interpolationmode sample-hold
attr recordingmode vector
attr source powerConsumptionChanged
attr title "Power consumption"
vector 38 LoRaNetwork_straight.loRaNodes[9].LoRaNic.radio radioMode:vector ETV
attr interpolationmode sample-hold
attr recordingmode vector
attr source radioModeChanged
attr title "Radio mode"
vector 39 LoRaNetwork_straight.loRaNodes[9].LoRaNic.radio.energyConsumer powerConsumption:vector ETV
attr interpolationmode sample-hold
attr recordingmode vector
attr source powerConsumptionChanged
attr title "Power consumption"
vector 40 LoRaNetwork_straight.loRaGW_straight[0].LoRaGWNic.radio radioMode:vector ETV
attr interpolationmode sample-hold
attr recordingmode vector
attr source radioModeChanged
attr title "Radio mode"
vector 41 LoRaNetwork_straight.loRaGW_straight[0].LoRaGWNic.radio receptionState:vector ETV
attr interpolationmode sample-hold
attr recordingmode vector
attr source receptionStateChanged
attr title "Radio reception state"
vector 42 LoRaNetwork_straight.loRaGW_straight[0].LoRaGWNic.radio transmissionState:vector ETV
attr interpolationmode sample-hold
attr recordingmode vector
attr source transmissionStateChanged
attr title "Radio transmission state"
vector 43 LoRaNetwork_straight.loRaNodes[8].app[0] "SF Vector" ETV
vector 44 LoRaNetwork_straight.loRaNodes[8].app[0] "TP Vector" ETV
vector 45 LoRaNetwork_straight.loRaNodes[8].LoRaNic.queue incomingPacketLengths:vector ETV
attr interpolationmode none
attr recordingmode vector
attr source packetLength(packetPushStarted)
attr title "incoming packet lengths"
attr unit b
vector 46 LoRaNetwork_straight.loRaNodes[8].LoRaNic.queue incomingDataRate:vector ETV
attr interpolationmode linear
attr recordingmode vector
attr source throughput(packetPushStarted)
attr title "incoming datarate"
attr unit bps
vector 47 LoRaNetwork_straight.loRaNodes[8].LoRaNic.queue queueingTime:vector ETV
attr interpolationmode none
attr recordingmode vector
attr source queueingTime(packetPulled)
attr title "queueing times"
attr unit s
vector 48 LoRaNetwork_straight.loRaNodes[8].LoRaNic.queue outgoingPacketLengths:vector ETV
attr interpolationmode none
attr recordingmode vector
attr source packetLength(packetPulled)
attr title "outgoing packet lengths"
attr unit b
vector 49 LoRaNetwork_straight.loRaNodes[8].LoRaNic.queue outgoingDataRate:vector ETV
attr interpolationmode linear
attr recordingmode vector
attr source throughput(packetPulled)
attr title "outgoing datarate"
attr unit bps
vector 50 LoRaNetwork_straight.loRaNodes[8].LoRaNic.radio.IdealEpEnergyStorage residualEnergyCapacity:vector ETV
attr interpolationmode linear
attr recordingmode vector
attr source residualEnergyCapacityChanged
attr title "Residual energy capacity"
vector 51 LoRaNetwork_straight.loRaNodes[8].LoRaNic.radio transmissionState:vector ETV
attr interpolationmode sample-hold
attr recordingmode vector
attr source transmissionStateChanged
attr title "Radio transmission state"
vector 52 LoRaNetwork_straight.loRaNodes[8].LoRaNic.queue queueLength:vector ETV
attr autoWarmupFilter false
attr interpolationmode sample-hold
attr recordingmode vector
attr source "warmup(atomic(constant0(packetPushEnded) + count(packetPushStarted) - count(packetPulled) - count(packetRemoved) - count(packetDropped)))"
attr title "queue length"
attr unit pk
vector 53 LoRaNetwork_straight.loRaNodes[8].LoRaNic.queue queueBitLength:vector ETV
attr autoWarmupFilter false
attr interpolationmode sample-hold
attr recordingmode vector
attr source "warmup(atomic(constant0(packetPushEnded) + sum(packetLength(packetPushStarted)) - sum(packetLength(packetPulled)) - sum(packetLength(packetRemoved)) - sum(packetLength(packetDropped))))"
attr title "queue bit length"
attr unit b
vector 54 LoRaNetwork_straight.loRaGW_straight[0].udp packetSent:vector(packetBytes) ETV
attr interpolationmode none
attr recordingmode vector(packetBytes)
attr source packetSent
attr title "packets sent, packetBytes"
vector 55 LoRaNetwork_straight.loRaGW_straight[0].ipv4.arp arpRequestSent:vector(packetBytes) ETV
attr recordingmode vector(packetBytes)
attr source arpRequestSent
attr title "ARP request sent, packetBytes"
vector 56 LoRaNetwork_straight.loRaGW_straight[0].ethernet encapPk:vector(packetBytes) ETV
attr interpolationmode none
attr recordingmode vector(packetBytes)
attr source encapPk
attr title "packets encapsulated, packetBytes"
vector 57 LoRaNetwork_straight.loRaGW_straight[0].eth[0].queue incomingPacketLengths:vector ETV
attr interpolationmode none
attr recordingmode vector
attr source packetLength(packetPushStarted)
attr title "incoming packet lengths"
attr unit b
vector 58 LoRaNetwork_straight.loRaGW_straight[0].eth[0].queue incomingDataRate:vector ETV
attr interpolationmode linear
attr recordingmode vector
attr source throughput(packetPushStarted)
attr title "incoming datarate"
attr unit bps
vector 59 LoRaNetwork_straight.loRaGW_straight[0].eth[0].queue queueingTime:vector ETV
attr interpolationmode none
attr recordingmode vector
attr source queueingTime(packetPulled)
attr title "queueing times"
attr unit s
vector 60 LoRaNetwork_straight.loRaGW_straight[0].eth[0].queue outgoingPacketLengths:vector ETV
attr interpolationmode none
attr recordingmode vector
attr source packetLength(packetPulled)
attr title "outgoing packet lengths"
attr unit b
vector 61 LoRaNetwork_straight.loRaGW_straight[0].eth[0].queue outgoingDataRate:vector ETV
attr interpolationmode linear
attr recordingmode vector
attr source throughput(packetPulled)
attr title "outgoing datarate"
attr unit bps
vector 62 LoRaNetwork_straight.loRaGW_straight[0].eth[0].mac packetReceivedFromUpper:vector(packetBytes) ETV
attr interpolationmode none
attr recordingmode vector(packetBytes)
attr source packetReceivedFromUpper
attr title "packet bytes from higher layer, packetBytes"
vector 63 LoRaNetwork_straight.loRaGW_straight[0].eth[0].queue queueLength:vector ETV
attr autoWarmupFilter false
attr interpolationmode sample-hold
attr recordingmode vector
attr source "warmup(atomic(constant0(packetPushEnded) + count(packetPushStarted) - count(packetPulled) - count(packetRemoved) - count(packetDropped)))"
attr title "queue length"
attr unit pk
vector 64 LoRaNetwork_straight.loRaGW_straight[0].eth[0].queue queueBitLength:vector ETV
attr autoWarmupFilter false
attr interpolationmode sample-hold
attr recordingmode vector
attr source "warmup(atomic(constant0(packetPushEnded) + sum(packetLength(packetPushStarted)) - sum(packetLength(packetPulled)) - sum(packetLength(packetRemoved)) - sum(packetLength(packetDropped))))"
attr title "queue bit length"
attr unit b
vector 65 LoRaNetwork_straight.loRaGW_straight[0].eth[0].mac txPk:vector(packetBytes) ETV
attr interpolationmode none
attr recordingmode vector(packetBytes)
attr source packetSentToLower
attr title "packets transmitted, packetBytes"
vector 66 LoRaNetwork_straight.gwRouter[0].eth[0].mac rxPkOk:vector(packetBytes) ETV
attr interpolationmode none
attr recordingmode vector(packetBytes)
attr source rxPkOk
attr title "packets received OK, packetBytes"
vector 67 LoRaNetwork_straight.gwRouter[0].eth[0].mac passedUpPk:vector(packetBytes) ETV
attr interpolationmode none
attr recordingmode vector(packetBytes)
attr source packetSentToUpper
attr title "packets passed to higher layer, packetBytes"
vector 68 LoRaNetwork_straight.gwRouter[0].ethernet decapPk:vector(packetBytes) ETV
attr interpolationmode none
attr recordingmode vector(packetBytes)
attr source decapPk
attr title "packets decapsulated, packetBytes"
vector 69 LoRaNetwork_straight.gwRouter[0].ipv4.arp arpReplySent:vector(packetBytes) ETV
attr recordingmode vector(packetBytes)
attr source arpReplySent
attr title "ARP replies sent, packetBytes"
vector 70 LoRaNetwork_straight.gwRouter[0].ethernet encapPk:vector(packetBytes) ETV
attr interpolationmode none
attr recordingmode vector(packetBytes)
attr source encapPk
attr title "packets encapsulated, packetBytes"
vector 71 LoRaNetwork_straight.gwRouter[0].eth[0].queue incomingPacketLengths:vector ETV
attr interpolationmode none
attr recordingmode vector
attr source packetLength(packetPushStarted)
attr title "incoming packet lengths"
attr unit b
vector 72 LoRaNetwork_straight.gwRouter[0].eth[0].queue incomingDataRate:vector ETV
attr interpolationmode linear
attr recordingmode vector
attr source throughput(packetPushStarted)
attr title "incoming datarate"
attr unit bps
vector 73 LoRaNetwork_straight.gwRouter[0].eth[0].queue queueingTime:vector ETV
attr interpolationmode none
attr recordingmode vector
attr source queueingTime(packetPulled)
attr title "queueing times"
attr unit s
vector 74 LoRaNetwork_straight.gwRouter[0].eth[0].queue outgoingPacketLengths:vector ETV
attr interpolationmode none
attr recordingmode vector
attr source packetLength(packetPulled)
attr title "outgoing packet lengths"
attr unit b
vector 75 LoRaNetwork_straight.gwRouter[0].eth[0].queue outgoingDataRate:vector ETV
attr interpolationmode linear
attr recordingmode vector
attr source throughput(packetPulled)
attr title "outgoing datarate"
attr unit bps
vector 76 LoRaNetwork_straight.gwRouter[0].eth[0].mac packetReceivedFromUpper:vector(packetBytes) ETV
attr interpolationmode none
attr recordingmode vector(packetBytes)
attr source packetReceivedFromUpper
attr title "packet bytes from higher layer, packetBytes"
vector 77 LoRaNetwork_straight.gwRouter[0].eth[0].queue queueLength:vector ETV
attr autoWarmupFilter false
attr interpolationmode sample-hold
attr recordingmode vector
attr source "warmup(atomic(constant0(packetPushEnded) + count(packetPushStarted) - count(packetPulled) - count(packetRemoved) - count(packetDropped)))"
attr title "queue length"
attr unit pk
vector 78 LoRaNetwork_straight.gwRouter[0].eth[0].queue queueBitLength:vector ETV
attr autoWarmupFilter false
attr interpolationmode sample-hold
attr recordingmode vector
attr source "warmup(atomic(constant0(packetPushEnded) + sum(packetLength(packetPushStarted)) - sum(packetLength(packetPulled)) - sum(packetLength(packetRemoved)) - sum(packetLength(packetDropped))))"
attr title "queue bit length"
attr unit b
vector 79 LoRaNetwork_straight.gwRouter[0].eth[0].mac txPk:vector(packetBytes) ETV
attr interpolationmode none
attr recordingmode vector(packetBytes)
attr source packetSentToLower
attr title "packets transmitted, packetBytes"
vector 80 LoRaNetwork_straight.loRaGW_straight[0].eth[0].mac rxPkOk:vector(packetBytes) ETV
attr interpolationmode none
attr recordingmode vector(packetBytes)
attr source rxPkOk
attr title "packets received OK, packetBytes"
vector 81 LoRaNetwork_straight.loRaGW_straight[0].eth[0].mac passedUpPk:vector(packetBytes) ETV
attr interpolationmode none
attr recordingmode vector(packetBytes)
attr source packetSentToUpper
attr title "packets passed to higher layer, packetBytes"
vector 82 LoRaNetwork_straight.loRaGW_straight[0].ethernet decapPk:vector(packetBytes) ETV
attr interpolationmode none
attr recordingmode vector(packetBytes)
attr source decapPk
attr title "packets decapsulated, packetBytes"
vector 83 LoRaNetwork_straight.gwRouter[0].ppp[0].queue incomingPacketLengths:vector ETV
attr interpolationmode none
attr recordingmode vector
attr source packetLength(packetPushStarted)
attr title "incoming packet lengths"
attr unit b
vector 84 LoRaNetwork_straight.gwRouter[0].ppp[0].queue incomingDataRate:vector ETV
attr interpolationmode linear
attr recordingmode vector
attr source throughput(packetPushStarted)
attr title "incoming datarate"
attr unit bps
vector 85 LoRaNetwork_straight.gwRouter[0].ppp[0].queue queueingTime:vector ETV
attr interpolationmode none
attr recordingmode vector
attr source queueingTime(packetPulled)
attr title "queueing times"
attr unit s
vector 86 LoRaNetwork_straight.gwRouter[0].ppp[0].queue outgoingPacketLengths:vector ETV
attr interpolationmode none
attr recordingmode vector
attr source packetLength(packetPulled)
attr title "outgoing packet lengths"
attr unit b
vector 87 LoRaNetwork_straight.gwRouter[0].ppp[0].queue outgoingDataRate:vector ETV
attr interpolationmode linear
attr recordingmode vector
attr source throughput(packetPulled)
attr title "outgoing datarate"
attr unit bps
vector 88 LoRaNetwork_straight.gwRouter[0].ppp[0].ppp txPk:vector(packetBytes) ETV
attr interpolationmode none
attr recordingmode vector(packetBytes)
attr source packetSentToLower
attr title "packets transmitted, packetBytes"
vector 89 LoRaNetwork_straight.gwRouter[0].ppp[0].queue queueLength:vector ETV
attr autoWarmupFilter false
attr interpolationmode sample-hold
attr recordingmode vector
attr source "warmup(atomic(constant0(packetPushEnded) + count(packetPushStarted) - count(packetPulled) - count(packetRemoved) - count(packetDropped)))"
attr title "queue length"
attr unit pk
vector 90 LoRaNetwork_straight.gwRouter[0].ppp[0].queue queueBitLength:vector ETV
attr autoWarmupFilter false
attr interpolationmode sample-hold
attr recordingmode vector
attr source "warmup(atomic(constant0(packetPushEnded) + sum(packetLength(packetPushStarted)) - sum(packetLength(packetPulled)) - sum(packetLength(packetRemoved)) - sum(packetLength(packetDropped))))"
attr title "queue bit length"
attr unit b
vector 91 LoRaNetwork_straight.internetCloud.ppp[1].ppp rxPkOk:vector(packetBytes) ETV
attr interpolationmode none
attr recordingmode vector(packetBytes)
attr source rxPkOk
attr title "packets received OK, packetBytes"
vector 92 LoRaNetwork_straight.internetCloud.ppp[1].ppp passedUpPk:vector(packetBytes) ETV
attr interpolationmode none
attr recordingmode vector(packetBytes)
attr source packetSentToUpper
attr title "packets passed to higher layer, packetBytes"
vector 93 LoRaNetwork_straight.internetCloud.ppp[0].queue incomingPacketLengths:vector ETV
attr interpolationmode none
attr recordingmode vector
attr source packetLength(packetPushStarted)
attr title "incoming packet lengths"
attr unit b
vector 94 LoRaNetwork_straight.internetCloud.ppp[0].queue incomingDataRate:vector ETV
attr interpolationmode linear
attr recordingmode vector
attr source throughput(packetPushStarted)
attr title "incoming datarate"
attr unit bps
vector 95 LoRaNetwork_straight.internetCloud.ppp[0].queue queueingTime:vector ETV
attr interpolationmode none
attr recordingmode vector
attr source queueingTime(packetPulled)
attr title "queueing times"
attr unit s
vector 96 LoRaNetwork_straight.internetCloud.ppp[0].queue outgoingPacketLengths:vector ETV
attr interpolationmode none
attr recordingmode vector
attr source packetLength(packetPulled)
attr title "outgoing packet lengths"
attr unit b
vector 97 LoRaNetwork_straight.internetCloud.ppp[0].queue outgoingDataRate:vector ETV
attr interpolationmode linear
attr recordingmode vector
attr source throughput(packetPulled)
attr title "outgoing datarate"
attr unit bps
vector 98 LoRaNetwork_straight.internetCloud.ppp[0].ppp txPk:vector(packetBytes) ETV
attr interpolationmode none
attr recordingmode vector(packetBytes)
attr source packetSentToLower
attr title "packets transmitted, packetBytes"
vector 99 LoRaNetwork_straight.internetCloud.ppp[0].queue queueLength:vector ETV
attr autoWarmupFilter false
attr interpolationmode sample-hold
attr recordingmode vector
attr source "warmup(atomic(constant0(packetPushEnded) + count(packetPushStarted) - count(packetPulled) - count(packetRemoved) - count(packetDropped)))"
attr title "queue length"
attr unit pk
vector 100 LoRaNetwork_straight.internetCloud.ppp[0].queue queueBitLength:vector ETV
attr autoWarmupFilter false
attr interpolationmode sample-hold
attr recordingmode vector
attr source "warmup(atomic(constant0(packetPushEnded) + sum(packetLength(packetPushStarted)) - sum(packetLength(packetPulled)) - sum(packetLength(packetRemoved)) - sum(packetLength(packetDropped))))"
attr title "queue bit length"
attr unit b
vector 101 LoRaNetwork_straight.nsRouter.ppp[0].ppp rxPkOk:vector(packetBytes) ETV
attr interpolationmode none
attr recordingmode vector(packetBytes)
attr source rxPkOk
attr title "packets received OK, packetBytes"
vector 102 LoRaNetwork_straight.nsRouter.ppp[0].ppp passedUpPk:vector(packetBytes) ETV
attr interpolationmode none
attr recordingmode vector(packetBytes)
attr source packetSentToUpper
attr title "packets passed to higher layer, packetBytes"
vector 103 LoRaNetwork_straight.nsRouter.ipv4.arp arpRequestSent:vector(packetBytes) ETV
attr recordingmode vector(packetBytes)
attr source arpRequestSent
attr title "ARP request sent, packetBytes"
vector 104 LoRaNetwork_straight.nsRouter.ethernet encapPk:vector(packetBytes) ETV
attr interpolationmode none
attr recordingmode vector(packetBytes)
attr source encapPk
attr title "packets encapsulated, packetBytes"
vector 105 LoRaNetwork_straight.nsRouter.eth[0].queue incomingPacketLengths:vector ETV
attr interpolationmode none
attr recordingmode vector
attr source packetLength(packetPushStarted)
attr title "incoming packet lengths"
attr unit b
vector 106 LoRaNetwork_straight.nsRouter.eth[0].queue incomingDataRate:vector ETV
attr interpolationmode linear
attr recordingmode vector
attr source throughput(packetPushStarted)
attr title "incoming datarate"
attr unit bps
vector 107 LoRaNetwork_straight.nsRouter.eth[0].queue queueingTime:vector ETV
attr interpolationmode none
attr recordingmode vector
attr source queueingTime(packetPulled)
attr title "queueing times"
attr unit s
vector 108 LoRaNetwork_straight.nsRouter.eth[0].queue outgoingPacketLengths:vector ETV
attr interpolationmode none
attr recordingmode vector
attr source packetLength(packetPulled)
attr title "outgoing packet lengths"
attr unit b
vector 109 LoRaNetwork_straight.nsRouter.eth[0].queue outgoingDataRate:vector ETV
attr interpolationmode linear
attr recordingmode vector
attr source throughput(packetPulled)
attr title "outgoing datarate"
attr unit bps
vector 110 LoRaNetwork_straight.nsRouter.eth[0].mac packetReceivedFromUpper:vector(packetBytes) ETV
attr interpolationmode none
attr recordingmode vector(packetBytes)
attr source packetReceivedFromUpper
attr title "packet bytes from higher layer, packetBytes"
vector 111 LoRaNetwork_straight.nsRouter.eth[0].queue queueLength:vector ETV
attr autoWarmupFilter false
attr interpolationmode sample-hold
attr recordingmode vector
attr source "warmup(atomic(constant0(packetPushEnded) + count(packetPushStarted) - count(packetPulled) - count(packetRemoved) - count(packetDropped)))"
attr title "queue length"
attr unit pk
vector 112 LoRaNetwork_straight.nsRouter.eth[0].queue queueBitLength:vector ETV
attr autoWarmupFilter false
attr interpolationmode sample-hold
attr recordingmode vector
attr source "warmup(atomic(constant0(packetPushEnded) + sum(packetLength(packetPushStarted)) - sum(packetLength(packetPulled)) - sum(packetLength(packetRemoved)) - sum(packetLength(packetDropped))))"
attr title "queue bit length"
attr unit b
vector 113 LoRaNetwork_straight.nsRouter.eth[0].mac txPk:vector(packetBytes) ETV
attr interpolationmode none
attr recordingmode vector(packetBytes)
attr source packetSentToLower
attr title "packets transmitted, packetBytes"
vector 114 LoRaNetwork_straight.networkServer.eth[0].mac rxPkOk:vector(packetBytes) ETV
attr interpolationmode none
attr recordingmode vector(packetBytes)
attr source rxPkOk
attr title "packets received OK, packetBytes"
vector 115 LoRaNetwork_straight.networkServer.eth[0].mac passedUpPk:vector(packetBytes) ETV
attr interpolationmode none
attr recordingmode vector(packetBytes)
attr source packetSentToUpper
attr title "packets passed to higher layer, packetBytes"
vector 116 LoRaNetwork_straight.networkServer.ethernet decapPk:vector(packetBytes) ETV
attr interpolationmode none
attr recordingmode vector(packetBytes)
attr source decapPk
attr title "packets decapsulated, packetBytes"
vector 117 LoRaNetwork_straight.networkServer.ipv4.arp arpReplySent:vector(packetBytes) ETV
attr recordingmode vector(packetBytes)
attr source arpReplySent
attr title "ARP replies sent, packetBytes"
vector 118 LoRaNetwork_straight.networkServer.ethernet encapPk:vector(packetBytes) ETV
attr interpolationmode none
attr recordingmode vector(packetBytes)
attr source encapPk
attr title "packets encapsulated, packetBytes"
vector 119 LoRaNetwork_straight.networkServer.eth[0].queue incomingPacketLengths:vector ETV
attr interpolationmode none
attr recordingmode vector
attr source packetLength(packetPushStarted)
attr title "incoming packet lengths"
attr unit b
vector 120 LoRaNetwork_straight.networkServer.eth[0].queue incomingDataRate:vector ETV
attr interpolationmode linear
attr recordingmode vector
attr source throughput(packetPushStarted)
attr title "incoming datarate"
attr unit bps
vector 121 LoRaNetwork_straight.networkServer.eth[0].queue queueingTime:vector ETV
attr interpolationmode none
attr recordingmode vector
attr source queueingTime(packetPulled)
attr title "queueing times"
attr unit s
vector 122 LoRaNetwork_straight.networkServer.eth[0].queue outgoingPacketLengths:vector ETV
attr interpolationmode none
attr recordingmode vector
attr source packetLength(packetPulled)
attr title "outgoing packet lengths"
attr unit b
vector 123 LoRaNetwork_straight.networkServer.eth[0].queue outgoingDataRate:vector ETV
attr interpolationmode linear
attr recordingmode vector
attr source throughput(packetPulled)
attr title "outgoing datarate"
attr unit bps
vector 124 LoRaNetwork_straight.networkServer.eth[0].mac packetReceivedFromUpper:vector(packetBytes) ETV
attr interpolationmode none
attr recordingmode vector(packetBytes)
attr source packetReceivedFromUpper
attr title "packet bytes from higher layer, packetBytes"
vector 125 LoRaNetwork_straight.networkServer.eth[0].queue queueLength:vector ETV
attr autoWarmupFilter false
attr interpolationmode sample-hold
attr recordingmode vector
attr source "warmup(atomic(constant0(packetPushEnded) + count(packetPushStarted) - count(packetPulled) - count(packetRemoved) - count(packetDropped)))"
attr title "queue length"
attr unit pk
vector 126 LoRaNetwork_straight.networkServer.eth[0].queue queueBitLength:vector ETV
attr autoWarmupFilter false
attr interpolationmode sample-hold
attr recordingmode vector
attr source "warmup(atomic(constant0(packetPushEnded) + sum(packetLength(packetPushStarted)) - sum(packetLength(packetPulled)) - sum(packetLength(packetRemoved)) - sum(packetLength(packetDropped))))"
attr title "queue bit length"
attr unit b
vector 127 LoRaNetwork_straight.networkServer.eth[0].mac txPk:vector(packetBytes) ETV
attr interpolationmode none
attr recordingmode vector(packetBytes)
attr source packetSentToLower
attr title "packets transmitted, packetBytes"
vector 128 LoRaNetwork_straight.nsRouter.eth[0].mac rxPkOk:vector(packetBytes) ETV
attr interpolationmode none
attr recordingmode vector(packetBytes)
attr source rxPkOk
attr title "packets received OK, packetBytes"
vector 129 LoRaNetwork_straight.nsRouter.eth[0].mac passedUpPk:vector(packetBytes) ETV
attr interpolationmode none
attr recordingmode vector(packetBytes)
attr source packetSentToUpper
attr title "packets passed to higher layer, packetBytes"
vector 130 LoRaNetwork_straight.nsRouter.ethernet decapPk:vector(packetBytes) ETV
attr interpolationmode none
attr recordingmode vector(packetBytes)
attr source decapPk
attr title "packets decapsulated, packetBytes"
vector 131 LoRaNetwork_straight.networkServer.udp packetReceived:vector(packetBytes) ETV
attr interpolationmode none
attr recordingmode vector(packetBytes)
attr source packetReceived
attr title "packets received, packetBytes"
vector 132 LoRaNetwork_straight.networkServer.app[0] "Vector of SNIR per node" ETV
vector 133 LoRaNetwork_straight.networkServer.app[0] "Vector of RSSI per node" ETV
vector 134 LoRaNetwork_straight.networkServer.app[0] "received simTime" ETV
vector 135 LoRaNetwork_straight.loRaNodes[8].LoRaNic.radio receptionState:vector ETV
attr interpolationmode sample-hold
attr recordingmode vector
attr source receptionStateChanged
attr title "Radio reception state"
vector 136 LoRaNetwork_straight.networkServer.app[0] "Received Sequence number" ETV
vector 137 LoRaNetwork_straight.loRaNodes[6].app[0] "SF Vector" ETV
vector 138 LoRaNetwork_straight.loRaNodes[6].app[0] "TP Vector" ETV
vector 139 LoRaNetwork_straight.loRaNodes[6].LoRaNic.queue incomingPacketLengths:vector ETV
attr interpolationmode none
attr recordingmode vector
attr source packetLength(packetPushStarted)
attr title "incoming packet lengths"
attr unit b
vector 140 LoRaNetwork_straight.loRaNodes[6].LoRaNic.queue incomingDataRate:vector ETV
attr interpolationmode linear
attr recordingmode vector
attr source throughput(packetPushStarted)
attr title "incoming datarate"
attr unit bps
vector 141 LoRaNetwork_straight.loRaNodes[6].LoRaNic.queue queueingTime:vector ETV
attr interpolationmode none
attr recordingmode vector
attr source queueingTime(packetPulled)
attr title "queueing times"
attr unit s
vector 142 LoRaNetwork_straight.loRaNodes[6].LoRaNic.queue outgoingPacketLengths:vector ETV
attr interpolationmode none
attr recordingmode vector
attr source packetLength(packetPulled)
attr title "outgoing packet lengths"
attr unit b
vector 143 LoRaNetwork_straight.loRaNodes[6].LoRaNic.queue outgoingDataRate:vector ETV
attr interpolationmode linear
attr recordingmode vector
attr source throughput(packetPulled)
attr title "outgoing datarate"
attr unit bps
vector 144 LoRaNetwork_straight.loRaNodes[6].LoRaNic.radio.IdealEpEnergyStorage residualEnergyCapacity:vector ETV
attr interpolationmode linear
attr recordingmode vector
attr source residualEnergyCapacityChanged
attr title "Residual energy capacity"
vector 145 LoRaNetwork_straight.loRaNodes[6].LoRaNic.radio transmissionState:vector ETV
attr interpolationmode sample-hold
attr recordingmode vector
attr source transmissionStateChanged
attr title "Radio transmission state"
vector 146 LoRaNetwork_straight.loRaNodes[6].LoRaNic.queue queueLength:vector ETV
attr autoWarmupFilter false
attr interpolationmode sample-hold
attr recordingmode vector
attr source "warmup(atomic(constant0(packetPushEnded) + count(packetPushStarted) - count(packetPulled) - count(packetRemoved) - count(packetDropped)))"
attr title "queue length"
attr unit pk
vector 147 LoRaNetwork_straight.loRaNodes[6].LoRaNic.queue queueBitLength:vector ETV
attr autoWarmupFilter false
attr interpolationmode sample-hold
attr recordingmode vector
attr source "warmup(atomic(constant0(packetPushEnded) + sum(packetLength(packetPushStarted)) - sum(packetLength(packetPulled)) - sum(packetLength(packetRemoved)) - sum(packetLength(packetDropped))))"
attr title "queue bit length"
attr unit b
vector 148 LoRaNetwork_straight.networkServer.app[0] "Vector of SNIR per node" ETV
vector 149 LoRaNetwork_straight.networkServer.app[0] "Vector of RSSI per node" ETV
vector 150 LoRaNetwork_straight.networkServer.app[0] "received simTime" ETV
vector 151 LoRaNetwork_straight.loRaNodes[0].app[0] "SF Vector" ETV
vector 152 LoRaNetwork_straight.loRaNodes[0].app[0] "TP Vector" ETV
vector 153 LoRaNetwork_straight.loRaNodes[0].LoRaNic.queue incomingPacketLengths:vector ETV
attr interpolationmode none
attr recordingmode vector
attr source packetLength(packetPushStarted)
attr title "incoming packet lengths"
attr unit b
vector 154 LoRaNetwork_straight.loRaNodes[0].LoRaNic.queue incomingDataRate:vector ETV
attr interpolationmode linear
attr recordingmode vector
attr source throughput(packetPushStarted)
attr title "incoming datarate"
attr unit bps
vector 155 LoRaNetwork_straight.loRaNodes[0].LoRaNic.queue queueingTime:vector ETV
attr interpolationmode none
attr recordingmode vector
attr source queueingTime(packetPulled)
attr title "queueing times"
attr unit s
vector 156 LoRaNetwork_straight.loRaNodes[0].LoRaNic.queue outgoingPacketLengths:vector ETV
attr interpolationmode none
attr recordingmode vector
attr source packetLength(packetPulled)
attr title "outgoing packet lengths"
attr unit b
vector 157 LoRaNetwork_straight.loRaNodes[0].LoRaNic.queue outgoingDataRate:vector ETV
attr interpolationmode linear
attr recordingmode vector
attr source throughput(packetPulled)
attr title "outgoing datarate"
attr unit bps
vector 158 LoRaNetwork_straight.loRaNodes[0].LoRaNic.radio.IdealEpEnergyStorage residualEnergyCapacity:vector ETV
attr interpolationmode linear
attr recordingmode vector
attr source residualEnergyCapacityChanged
attr title "Residual energy capacity"
vector 159 LoRaNetwork_straight.loRaNodes[0].LoRaNic.radio transmissionState:vector ETV
attr interpolationmode sample-hold
attr recordingmode vector
attr source transmissionStateChanged
attr title "Radio transmission state"
vector 160 LoRaNetwork_straight.loRaNodes[0].LoRaNic.queue queueLength:vector ETV
attr autoWarmupFilter false
attr interpolationmode sample-hold
attr recordingmode vector
attr source "warmup(atomic(constant0(packetPushEnded) + count(packetPushStarted) - count(packetPulled) - count(packetRemoved) - count(packetDropped)))"
attr title "queue length"
attr unit pk
vector 161 LoRaNetwork_straight.loRaNodes[0].LoRaNic.queue queueBitLength:vector ETV
attr autoWarmupFilter false
attr interpolationmode sample-hold
attr recordingmode vector
attr source "warmup(atomic(constant0(packetPushEnded) + sum(packetLength(packetPushStarted)) - sum(packetLength(packetPulled)) - sum(packetLength(packetRemoved)) - sum(packetLength(packetDropped))))"
attr title "queue bit length"
attr unit b
vector 162 LoRaNetwork_straight.networkServer.app[0] "Vector of SNIR per node" ETV
vector 163 LoRaNetwork_straight.networkServer.app[0] "Vector of RSSI per node" ETV
vector 164 LoRaNetwork_straight.networkServer.app[0] "received simTime" ETV
vector 165 LoRaNetwork_straight.loRaNodes[6].LoRaNic.radio receptionState:vector ETV
attr interpolationmode sample-hold
attr recordingmode vector
attr source receptionStateChanged
attr title "Radio reception state"
vector 166 LoRaNetwork_straight.loRaNodes[0].LoRaNic.radio receptionState:vector ETV
attr interpolationmode sample-hold
attr recordingmode vector
attr source receptionStateChanged
attr title "Radio reception state"
vector 167 LoRaNetwork_straight.loRaNodes[1].app[0] "SF Vector" ETV
vector 168 LoRaNetwork_straight.loRaNodes[1].app[0] "TP Vector" ETV
vector 169 LoRaNetwork_straight.loRaNodes[1].LoRaNic.queue incomingPacketLengths:vector ETV
attr interpolationmode none
attr recordingmode vector
attr source packetLength(packetPushStarted)
attr title "incoming packet lengths"
attr unit b
vector 170 LoRaNetwork_straight.loRaNodes[1].LoRaNic.queue incomingDataRate:vector ETV
attr interpolationmode linear
attr recordingmode vector
attr source throughput(packetPushStarted)
attr title "incoming datarate"
attr unit bps
vector 171 LoRaNetwork_straight.loRaNodes[1].LoRaNic.queue queueingTime:vector ETV
attr interpolationmode none
attr recordingmode vector
attr source queueingTime(packetPulled)
attr title "queueing times"
attr unit s
vector 172 LoRaNetwork_straight.loRaNodes[1].LoRaNic.queue outgoingPacketLengths:vector ETV
attr interpolationmode none
attr recordingmode vector
attr source packetLength(packetPulled)
attr title "outgoing packet lengths"
attr unit b
vector 173 LoRaNetwork_straight.loRaNodes[1].LoRaNic.queue outgoingDataRate:vector ETV
attr interpolationmode linear
attr recordingmode vector
attr source throughput(packetPulled)
attr title "outgoing datarate"
attr unit bps
vector 174 LoRaNetwork_straight.loRaNodes[1].LoRaNic.radio.IdealEpEnergyStorage residualEnergyCapacity:vector ETV
attr interpolationmode linear
attr recordingmode vector
attr source residualEnergyCapacityChanged
attr title "Residual energy capacity"
vector 175 LoRaNetwork_straight.loRaNodes[1].LoRaNic.radio transmissionState:vector ETV
attr interpolationmode sample-hold
attr recordingmode vector
attr source transmissionStateChanged
attr title "Radio transmission state"
vector 176 LoRaNetwork_straight.loRaNodes[1].LoRaNic.queue queueLength:vector ETV
attr autoWarmupFilter false
attr interpolationmode sample-hold
attr recordingmode vector
attr source "warmup(atomic(constant0(packetPushEnded) + count(packetPushStarted) - count(packetPulled) - count(packetRemoved) - count(packetDropped)))"
attr title "queue length"
attr unit pk
vector 177 LoRaNetwork_straight.loRaNodes[1].LoRaNic.queue queueBitLength:vector ETV
attr autoWarmupFilter false
attr interpolationmode sample-hold
attr recordingmode vector
attr source "warmup(atomic(constant0(packetPushEnded) + sum(packetLength(packetPushStarted)) - sum(packetLength(packetPulled)) - sum(packetLength(packetRemoved)) - sum(packetLength(packetDropped))))"
attr title "queue bit length"
attr unit b
vector 178 LoRaNetwork_straight.networkServer.app[0] "Vector of SNIR per node" ETV
vector 179 LoRaNetwork_straight.networkServer.app[0] "Vector of RSSI per node" ETV
vector 180 LoRaNetwork_straight.networkServer.app[0] "received simTime" ETV
vector 181 LoRaNetwork_straight.networkServer.app[0] "Received Sequence number" ETV
vector 182 LoRaNetwork_straight.networkServer.app[0] "Received Sequence number" ETV
vector 183 LoRaNetwork_straight.loRaNodes[4].app[0] "SF Vector" ETV
vector 184 LoRaNetwork_straight.loRaNodes[4].app[0] "TP Vector" ETV
vector 185 LoRaNetwork_straight.loRaNodes[4].LoRaNic.queue incomingPacketLengths:vector ETV
attr interpolationmode none
attr recordingmode vector
attr source packetLength(packetPushStarted)
attr title "incoming packet lengths"
attr unit b
vector 186 LoRaNetwork_straight.loRaNodes[4].LoRaNic.queue incomingDataRate:vector ETV
attr interpolationmode linear
attr recordingmode vector
attr source throughput(packetPushStarted)
attr title "incoming datarate"
attr unit bps
vector 187 LoRaNetwork_straight.loRaNodes[4].LoRaNic.queue queueingTime:vector ETV
attr interpolationmode none
attr recordingmode vector
attr source queueingTime(packetPulled)
attr title "queueing times"
attr unit s
vector 188 LoRaNetwork_straight.loRaNodes[4].LoRaNic.queue outgoingPacketLengths:vector ETV
attr interpolationmode none
attr recordingmode vector
attr source packetLength(packetPulled)
attr title "outgoing packet lengths"
attr unit b
vector 189 LoRaNetwork_straight.loRaNodes[4].LoRaNic.queue outgoingDataRate:vector ETV
attr interpolationmode linear
attr recordingmode vector
attr source throughput(packetPulled)
attr title "outgoing datarate"
attr unit bps
vector 190 LoRaNetwork_straight.loRaNodes[4].LoRaNic.radio.IdealEpEnergyStorage residualEnergyCapacity:vector ETV
attr interpolationmode linear
attr recordingmode vector
attr source residualEnergyCapacityChanged
attr title "Residual energy capacity"
vector 191 LoRaNetwork_straight.loRaNodes[4].LoRaNic.radio transmissionState:vector ETV
attr interpolationmode sample-hold
attr recordingmode vector
attr source transmissionStateChanged
attr title "Radio transmission state"
vector 192 LoRaNetwork_straight.loRaNodes[4].LoRaNic.queue queueLength:vector ETV
attr autoWarmupFilter false
attr interpolationmode sample-hold
attr recordingmode vector
attr source "warmup(atomic(constant0(packetPushEnded) + count(packetPushStarted) - count(packetPulled) - count(packetRemoved) - count(packetDropped)))"
attr title "queue length"
attr unit pk
vector 193 LoRaNetwork_straight.loRaNodes[4].LoRaNic.queue queueBitLength:vector ETV
attr autoWarmupFilter false
attr interpolationmode sample-hold
attr recordingmode vector
attr source "warmup(atomic(constant0(packetPushEnded) + sum(packetLength(packetPushStarted)) - sum(packetLength(packetPulled)) - sum(packetLength(packetRemoved)) - sum(packetLength(packetDropped))))"
attr title "queue bit length"
attr unit b
vector 194 LoRaNetwork_straight.networkServer.app[0] "Vector of SNIR per node" ETV
vector 195 LoRaNetwork_straight.networkServer.app[0] "Vector of RSSI per node" ETV
vector 196 LoRaNetwork_straight.networkServer.app[0] "received simTime" ETV
vector 197 LoRaNetwork_straight.loRaNodes[9].app[0] "SF Vector" ETV
vector 198 LoRaNetwork_straight.loRaNodes[9].app[0] "TP Vector" ETV
vector 199 LoRaNetwork_straight.loRaNodes[9].LoRaNic.queue incomingPacketLengths:vector ETV
attr interpolationmode none
attr recordingmode vector
attr source packetLength(packetPushStarted)
attr title "incoming packet lengths"
attr unit b
vector 200 LoRaNetwork_straight.loRaNodes[9].LoRaNic.queue incomingDataRate:vector ETV
attr interpolationmode linear
attr recordingmode vector
attr source throughput(packetPushStarted)
attr title "incoming datarate"
attr unit bps
vector 201 LoRaNetwork_straight.loRaNodes[9].LoRaNic.queue queueingTime:vector ETV
attr interpolationmode none
attr recordingmode vector
attr source queueingTime(packetPulled)
attr title "queueing times"
attr unit s
vector 202 LoRaNetwork_straight.loRaNodes[9].LoRaNic.queue outgoingPacketLengths:vector ETV
attr interpolationmode none
attr recordingmode vector
attr source packetLength(packetPulled)
attr title "outgoing packet lengths"
attr unit b
vector 203 LoRaNetwork_straight.loRaNodes[9].LoRaNic.queue outgoingDataRate:vector ETV
attr interpolationmode linear
attr recordingmode vector
attr source throughput(packetPulled)
attr title "outgoing datarate"
attr unit bps
vector 204 LoRaNetwork_straight.loRaNodes[9].LoRaNic.radio.IdealEpEnergyStorage residualEnergyCapacity:vector ETV
attr interpolationmode linear
attr recordingmode vector
attr source residualEnergyCapacityChanged
attr title "Residual energy capacity"
vector 205 LoRaNetwork_straight.loRaNodes[9].LoRaNic.radio transmissionState:vector ETV
attr interpolationmode sample-hold
attr recordingmode vector
attr source transmissionStateChanged
attr title "Radio transmission state"
vector 206 LoRaNetwork_straight.loRaNodes[9].LoRaNic.queue queueLength:vector ETV
attr autoWarmupFilter false
attr interpolationmode sample-hold
attr recordingmode vector
attr source "warmup(atomic(constant0(packetPushEnded) + count(packetPushStarted) - count(packetPulled) - count(packetRemoved) - count(packetDropped)))"
attr title "queue length"
attr unit pk
vector 207 LoRaNetwork_straight.loRaNodes[9].LoRaNic.queue queueBitLength:vector ETV
attr autoWarmupFilter false
attr interpolationmode sample-hold
attr recordingmode vector
attr source "warmup(atomic(constant0(packetPushEnded) + sum(packetLength(packetPushStarted)) - sum(packetLength(packetPulled)) - sum(packetLength(packetRemoved)) - sum(packetLength(packetDropped))))"
attr title "queue bit length"
attr unit b
vector 208 LoRaNetwork_straight.networkServer.app[0] "Vector of SNIR per node" ETV
vector 209 LoRaNetwork_straight.networkServer.app[0] "Vector of RSSI per node" ETV
vector 210 LoRaNetwork_straight.networkServer.app[0] "received simTime" ETV
vector 211 LoRaNetwork_straight.loRaNodes[1].LoRaNic.radio receptionState:vector ETV
attr interpolationmode sample-hold
attr recordingmode vector
attr source receptionStateChanged
attr title "Radio reception state"
vector 212 LoRaNetwork_straight.networkServer.app[0] "Received Sequence number" ETV
vector 213 LoRaNetwork_straight.loRaNodes[4].LoRaNic.radio receptionState:vector ETV
attr interpolationmode sample-hold
attr recordingmode vector
attr source receptionStateChanged
attr title "Radio reception state"
vector 214 LoRaNetwork_straight.networkServer.app[0] "Received Sequence number" ETV
vector 215 LoRaNetwork_straight.loRaNodes[9].LoRaNic.radio receptionState:vector ETV
attr interpolationmode sample-hold
attr recordingmode vector
attr source receptionStateChanged
attr title "Radio reception state"
vector 216 LoRaNetwork_straight.networkServer.app[0] "Received Sequence number" ETV
vector 217 LoRaNetwork_straight.loRaNodes[2].app[0] "SF Vector" ETV
vector 218 LoRaNetwork_straight.loRaNodes[2].app[0] "TP Vector" ETV
vector 219 LoRaNetwork_straight.loRaNodes[2].LoRaNic.queue incomingPacketLengths:vector ETV
attr interpolationmode none
attr recordingmode vector
attr source packetLength(packetPushStarted)
attr title "incoming packet lengths"
attr unit b
vector 220 LoRaNetwork_straight.loRaNodes[2].LoRaNic.queue incomingDataRate:vector ETV
attr interpolationmode linear
attr recordingmode vector
attr source throughput(packetPushStarted)
attr title "incoming datarate"
attr unit bps
vector 221 LoRaNetwork_straight.loRaNodes[2].LoRaNic.queue queueingTime:vector ETV
attr interpolationmode none
attr recordingmode vector
attr source queueingTime(packetPulled)
attr title "queueing times"
attr unit s
vector 222 LoRaNetwork_straight.loRaNodes[2].LoRaNic.queue outgoingPacketLengths:vector ETV
attr interpolationmode none
attr recordingmode vector
attr source packetLength(packetPulled)
attr title "outgoing packet lengths"
attr unit b
vector 223 LoRaNetwork_straight.loRaNodes[2].LoRaNic.queue outgoingDataRate:vector ETV
attr interpolationmode linear
attr recordingmode vector
attr source throughput(packetPulled)
attr title "outgoing datarate"
attr unit bps
vector 224 LoRaNetwork_straight.loRaNodes[2].LoRaNic.radio.IdealEpEnergyStorage residualEnergyCapacity:vector ETV
attr interpolationmode linear
attr recordingmode vector
attr source residualEnergyCapacityChanged
attr title "Residual energy capacity"
vector 225 LoRaNetwork_straight.loRaNodes[2].LoRaNic.radio transmissionState:vector ETV
attr interpolationmode sample-hold
attr recordingmode vector
attr source transmissionStateChanged
attr title "Radio transmission state"
vector 226 LoRaNetwork_straight.loRaNodes[2].LoRaNic.queue queueLength:vector ETV
attr autoWarmupFilter false
attr interpolationmode sample-hold
attr recordingmode vector
attr source "warmup(atomic(constant0(packetPushEnded) + count(packetPushStarted) - count(packetPulled) - count(packetRemoved) - count(packetDropped)))"
attr title "queue length"
attr unit pk
vector 227 LoRaNetwork_straight.loRaNodes[2].LoRaNic.queue queueBitLength:vector ETV
attr autoWarmupFilter false
attr interpolationmode sample-hold
attr recordingmode vector
attr source "warmup(atomic(constant0(packetPushEnded) + sum(packetLength(packetPushStarted)) - sum(packetLength(packetPulled)) - sum(packetLength(packetRemoved)) - sum(packetLength(packetDropped))))"
attr title "queue bit length"
attr unit b
vector 228 LoRaNetwork_straight.networkServer.app[0] "Vector of SNIR per node" ETV
vector 229 LoRaNetwork_straight.networkServer.app[0] "Vector of RSSI per node" ETV
vector 230 LoRaNetwork_straight.networkServer.app[0] "received simTime" ETV
vector 231 LoRaNetwork_straight.loRaNodes[2].LoRaNic.radio receptionState:vector ETV
attr interpolationmode sample-hold
attr recordingmode vector
attr source receptionStateChanged
attr title "Radio reception state"
vector 232 LoRaNetwork_straight.networkServer.app[0] "Received Sequence number" ETV
vector 233 LoRaNetwork_straight.loRaNodes[3].app[0] "SF Vector" ETV
vector 234 LoRaNetwork_straight.loRaNodes[3].app[0] "TP Vector" ETV
vector 235 LoRaNetwork_straight.loRaNodes[3].LoRaNic.queue incomingPacketLengths:vector ETV
attr interpolationmode none
attr recordingmode vector
attr source packetLength(packetPushStarted)
attr title "incoming packet lengths"
attr unit b
vector 236 LoRaNetwork_straight.loRaNodes[3].LoRaNic.queue incomingDataRate:vector ETV
attr interpolationmode linear
attr recordingmode vector
attr source throughput(packetPushStarted)
attr title "incoming datarate"
attr unit bps
vector 237 LoRaNetwork_straight.loRaNodes[3].LoRaNic.queue queueingTime:vector ETV
attr interpolationmode none
attr recordingmode vector
attr source queueingTime(packetPulled)
attr title "queueing times"
attr unit s
vector 238 LoRaNetwork_straight.loRaNodes[3].LoRaNic.queue outgoingPacketLengths:vector ETV
attr interpolationmode none
attr recordingmode vector
attr source packetLength(packetPulled)
attr title "outgoing packet lengths"
attr unit b
vector 239 LoRaNetwork_straight.loRaNodes[3].LoRaNic.queue outgoingDataRate:vector ETV
attr interpolationmode linear
attr recordingmode vector
attr source throughput(packetPulled)
attr title "outgoing datarate"
attr unit bps
vector 240 LoRaNetwork_straight.loRaNodes[3].LoRaNic.radio.IdealEpEnergyStorage residualEnergyCapacity:vector ETV
attr interpolationmode linear
attr recordingmode vector
attr source residualEnergyCapacityChanged
attr title "Residual energy capacity"
vector 241 LoRaNetwork_straight.loRaNodes[3].LoRaNic.radio transmissionState:vector ETV
attr interpolationmode sample-hold
attr recordingmode vector
attr source transmissionStateChanged
attr title "Radio transmission state"
vector 242 LoRaNetwork_straight.loRaNodes[3].LoRaNic.queue queueLength:vector ETV
attr autoWarmupFilter false
attr interpolationmode sample-hold
attr recordingmode vector
attr source "warmup(atomic(constant0(packetPushEnded) + count(packetPushStarted) - count(packetPulled) - count(packetRemoved) - count(packetDropped)))"
attr title "queue length"
attr unit pk
vector 243 LoRaNetwork_straight.loRaNodes[3].LoRaNic.queue queueBitLength:vector ETV
attr autoWarmupFilter false
attr interpolationmode sample-hold
attr recordingmode vector
attr source "warmup(atomic(constant0(packetPushEnded) + sum(packetLength(packetPushStarted)) - sum(packetLength(packetPulled)) - sum(packetLength(packetRemoved)) - sum(packetLength(packetDropped))))"
attr title "queue bit length"
attr unit b
vector 244 LoRaNetwork_straight.networkServer.app[0] "Vector of SNIR per node" ETV
vector 245 LoRaNetwork_straight.networkServer.app[0] "Vector of RSSI per node" ETV
vector 246 LoRaNetwork_straight.networkServer.app[0] "received simTime" ETV
vector 247 LoRaNetwork_straight.loRaNodes[7].app[0] "SF Vector" ETV
vector 248 LoRaNetwork_straight.loRaNodes[7].app[0] "TP Vector" ETV
vector 249 LoRaNetwork_straight.loRaNodes[7].LoRaNic.queue incomingPacketLengths:vector ETV
attr interpolationmode none
attr recordingmode vector
attr source packetLength(packetPushStarted)
attr title "incoming packet lengths"
attr unit b
vector 250 LoRaNetwork_straight.loRaNodes[7].LoRaNic.queue incomingDataRate:vector ETV
attr interpolationmode linear
attr recordingmode vector
attr source throughput(packetPushStarted)
attr title "incoming datarate"
attr unit bps
vector 251 LoRaNetwork_straight.loRaNodes[7].LoRaNic.queue queueingTime:vector ETV
attr interpolationmode none
attr recordingmode vector
attr source queueingTime(packetPulled)
attr title "queueing times"
attr unit s
vector 252 LoRaNetwork_straight.loRaNodes[7].LoRaNic.queue outgoingPacketLengths:vector ETV
attr interpolationmode none
attr recordingmode vector
attr source packetLength(packetPulled)
attr title "outgoing packet lengths"
attr unit b
vector 253 LoRaNetwork_straight.loRaNodes[7].LoRaNic.queue outgoingDataRate:vector ETV
attr interpolationmode linear
attr recordingmode vector
attr source throughput(packetPulled)
attr title "outgoing datarate"
attr unit bps
vector 254 LoRaNetwork_straight.loRaNodes[7].LoRaNic.radio.IdealEpEnergyStorage residualEnergyCapacity:vector ETV
attr interpolationmode linear
attr recordingmode vector
attr source residualEnergyCapacityChanged
attr title "Residual energy capacity"
vector 255 LoRaNetwork_straight.loRaNodes[7].LoRaNic.radio transmissionState:vector ETV
attr interpolationmode sample-hold
attr recordingmode vector
attr source transmissionStateChanged
attr title "Radio transmission state"
vector 256 LoRaNetwork_straight.loRaNodes[7].LoRaNic.queue queueLength:vector ETV
attr autoWarmupFilter false
attr interpolationmode sample-hold
attr recordingmode vector
attr source "warmup(atomic(constant0(packetPushEnded) + count(packetPushStarted) - count(packetPulled) - count(packetRemoved) - count(packetDropped)))"
attr title "queue length"
attr unit pk
vector 257 LoRaNetwork_straight.loRaNodes[7].LoRaNic.queue queueBitLength:vector ETV
attr autoWarmupFilter false
attr interpolationmode sample-hold
attr recordingmode vector
attr source "warmup(atomic(constant0(packetPushEnded) + sum(packetLength(packetPushStarted)) - sum(packetLength(packetPulled)) - sum(packetLength(packetRemoved)) - sum(packetLength(packetDropped))))"
attr title "queue bit length"
attr unit b
vector 258 LoRaNetwork_straight.networkServer.app[0] "Vector of SNIR per node" ETV
vector 259 LoRaNetwork_straight.networkServer.app[0] "Vector of RSSI per node" ETV
vector 260 LoRaNetwork_straight.networkServer.app[0] "received simTime" ETV
vector 261 LoRaNetwork_straight.loRaNodes[5].app[0] "SF Vector" ETV
vector 262 LoRaNetwork_straight.loRaNodes[5].app[0] "TP Vector" ETV
vector 263 LoRaNetwork_straight.loRaNodes[5].LoRaNic.queue incomingPacketLengths:vector ETV
attr interpolationmode none
attr recordingmode vector
attr source packetLength(packetPushStarted)
attr title "incoming packet lengths"
attr unit b
vector 264 LoRaNetwork_straight.loRaNodes[5].LoRaNic.queue incomingDataRate:vector ETV
attr interpolationmode linear
attr recordingmode vector
attr source throughput(packetPushStarted)
attr title "incoming datarate"
attr unit bps
vector 265 LoRaNetwork_straight.loRaNodes[5].LoRaNic.queue queueingTime:vector ETV
attr interpolationmode none
attr recordingmode vector
attr source queueingTime(packetPulled)
attr title "queueing times"
attr unit s
vector 266 LoRaNetwork_straight.loRaNodes[5].LoRaNic.queue outgoingPacketLengths:vector ETV
attr interpolationmode none
attr recordingmode vector
attr source packetLength(packetPulled)
attr title "outgoing packet lengths"
attr unit b
vector 267 LoRaNetwork_straight.loRaNodes[5].LoRaNic.queue outgoingDataRate:vector ETV
attr interpolationmode linear
attr recordingmode vector
attr source throughput(packetPulled)
attr title "outgoing datarate"
attr unit bps
vector 268 LoRaNetwork_straight.loRaNodes[5].LoRaNic.radio.IdealEpEnergyStorage residualEnergyCapacity:vector ETV
attr interpolationmode linear
attr recordingmode vector
attr source residualEnergyCapacityChanged
attr title "Residual energy capacity"
vector 269 LoRaNetwork_straight.loRaNodes[5].LoRaNic.radio transmissionState:vector ETV
attr interpolationmode sample-hold
attr recordingmode vector
attr source transmissionStateChanged
attr title "Radio transmission state"
vector 270 LoRaNetwork_straight.loRaNodes[5].LoRaNic.queue queueLength:vector ETV
attr autoWarmupFilter false
attr interpolationmode sample-hold
attr recordingmode vector
attr source "warmup(atomic(constant0(packetPushEnded) + count(packetPushStarted) - count(packetPulled) - count(packetRemoved) - count(packetDropped)))"
attr title "queue length"
attr unit pk
vector 271 LoRaNetwork_straight.loRaNodes[5].LoRaNic.queue queueBitLength:vector ETV
attr autoWarmupFilter false
attr interpolationmode sample-hold
attr recordingmode vector
attr source "warmup(atomic(constant0(packetPushEnded) + sum(packetLength(packetPushStarted)) - sum(packetLength(packetPulled)) - sum(packetLength(packetRemoved)) - sum(packetLength(packetDropped))))"
attr title "queue bit length"
attr unit b
vector 272 LoRaNetwork_straight.networkServer.app[0] "Vector of SNIR per node" ETV
vector 273 LoRaNetwork_straight.networkServer.app[0] "Vector of RSSI per node" ETV
vector 274 LoRaNetwork_straight.networkServer.app[0] "received simTime" ETV
vector 275 LoRaNetwork_straight.loRaNodes[3].LoRaNic.radio receptionState:vector ETV
attr interpolationmode sample-hold
attr recordingmode vector
attr source receptionStateChanged
attr title "Radio reception state"
vector 276 LoRaNetwork_straight.loRaNodes[7].LoRaNic.radio receptionState:vector ETV
attr interpolationmode sample-hold
attr recordingmode vector
attr source receptionStateChanged
attr title "Radio reception state"
vector 277 LoRaNetwork_straight.networkServer.app[0] "Received Sequence number" ETV
vector 278 LoRaNetwork_straight.networkServer.app[0] "Received Sequence number" ETV
vector 279 LoRaNetwork_straight.loRaNodes[5].LoRaNic.radio receptionState:vector ETV
attr interpolationmode sample-hold
attr recordingmode vector
attr source receptionStateChanged
attr title "Radio reception state"
vector 280 LoRaNetwork_straight.networkServer.app[0] "Received Sequence number" ETV
0	65062 8 0 0 0 0 1 0 0 0 0
1	65070 8 0 0 0 0 1 0 0 0 0
2	65078 8 0 0 0 0 1 0 0 0 0
3	65086 30347 0 78227 0 1127.09214544043 1094 0 1093 597871 435847959
4	95433 8 0 0 0 0 1 0 0 0 0
5	95441 8 0 0 0 0 1 0 0 0 0
6	95449 56336 0 78218 0 1127.09214469243 2187 0 1 1093 1093
7	151785 8 0 0 0 0 1 0 0 0 0
8	151793 56338 0 78209 0 1127.08214370643 2187 0 1 1093 1093
9	208131 8 0 0 0 0 1 0 0 0 0
10	208139 117844 0 78261 0 1129.08214167669 3953 0 0.1452 131.06841 13.8100847841
11	325983 101175 0 77958 0 1123.7056015177 3412 0 0.1452 115.28682 12.3845455602
12	427158 108343 0 78271 0 1129.76793418964 3656 0 0.1452 125.26305 13.4599033305
13	535501 101200 0 77931 0 1122.35576435837 3396 0 0.1452 109.06368 11.3142778848
14	636701 97933 0 77969 0 1124.12556899828 3316 0 0.1452 109.38048 11.5052057208
15	734634 97417 0 78281 0 1129.76793576059 3276 0 0.1452 110.517 11.771678358
16	832051 87403 0 77031 0 1110.14274018116 2948 0 0.1452 96.24879 10.0658786679
17	919454 102972 0 76799 0 1106.26054573862 3468 0 0.1452 111.73668 11.6299332468
18	1022426 86955 0 77696 0 1120.14508923128 2933 0 0.1452 92.74914 9.5758455474
19	1109381 90470 0 78260 0 1129.06262348354 3048 0 0.1452 103.71801 11.1431629881
20	1199851 33520 0 78261 0 1129.08214167669 1248 0 3 1997 3757
21	1233371 117835 0 78261 0 1129.08214167669 3952 0 0.1452 131.06841 13.8100847841
22	1351206 29108 0 77958 0 1123.7056015177 1089 0 3 1747 3301
23	1380314 101166 0 77958 0 1123.7056015177 3411 0 0.1452 115.28682 12.3845455602
24	1481480 31111 0 78270 0 1129.76793418964 1166 0 3 1872 3540
25	1512591 108334 0 78271 0 1129.76793418964 3655 0 0.1452 125.26305 13.4599033305
26	1620925 28595 0 77931 0 1122.35576435837 1065 0 3 1701 3191
27	1649520 101191 0 77931 0 1122.35576435837 3395 0 0.1452 109.06368 11.3142778848
28	1750711 27784 0 77969 0 1124.12556899828 1045 0 3 1671 3141
29	1778495 97924 0 77969 0 1124.12556899828 3315 0 0.1452 109.38048 11.5052057208
30	1876419 27912 0 78258 0 1128.9748928278 1042 0 3 1671 3155
31	1904331 97408 0 78281 0 1129.76793576059 3275 0 0.1452 110.517 11.771678358
32	2001739 24863 0 77031 0 1110.14274018116 931 0 3 1489 2801
33	2026602 87394 0 77031 0 1110.14274018116 2947 0 0.1452 96.24879 10.0658786679
34	2113996 29138 0 76799 0 1106.26054573862 1089 0 3 1740 3266
35	2143134 102963 0 76799 0 1106.26054573862 3467 0 0.1452 111.73668 11.6299332468
36	2246097 24647 0 77696 0 1120.14508923128 922 0 3 1472 2762
37	2270744 86946 0 77696 0 1120.14508923128 2932 0 0.1452 92.74914 9.5758455474
38	2357690 26065 0 78260 0 1129.06262348354 975 0 3 1565 2961
39	2383755 90461 0 78260 0 1129.06262348354 3047 0 0.1452 103.71801 11.1431629881
40	2474216 27 0 0 0 0 3 0 4 4 16
41	2474243 9 0 0 0 0 1 1 1 1 1
42	2474252 9 0 0 0 0 1 1 1 1 1
43	2474261 2489 59 77337 5.5104848667 1116.12556682152 93 7 7 651 4557
44	2476750 2582 59 77337 5.5104848667 1116.12556682152 93 14 14 1302 18228
45	2479332 2582 60 77338 5.5104848667 1116.12556682152 93 80 80 7440 595200
46	2481914 186072 60 77338 0.1 1116.1 11161 0 1600 73600 60160000
47	2667986 2797 60 77338 5.5104848667 1116.12556682152 93 0 6.51616837513 60.10147096485 200.965374799
48	2670783 2580 60 77338 5.5104848667 1116.12556682152 93 80 80 7440 595200
49	2673363 186101 60 77338 0.1 1116.1 11161 0 800 73600 58880000
50	2859464 36381 60 77695 5.5104848667 1120.14508923128 874 -10.549203661179 0 -4653.7207250082 31937.54113559
51	2895845 9952 60 77350 5.5104848667 1116.14508682152 372 0 2 372 558
52	2905797 3183 60 77338 5.5104848667 1116.12556682152 119 0 2 30 34
53	2908980 3213 60 77338 5.5104848667 1116.12556682152 119 0 160 2400 217600
54	2912193 30378 81 78286 5.53000684353 1129.78745474316 1094 35 35 38290 1340150
55	2942571 274 82 75695 5.53000684353 1092.35481169284 10 28 28 280 7840
56	2942845 30653 83 78288 5.53000684353 1129.78745474316 1104 28 55 60450 3317190
57	2973498 31757 84 78289 5.53000684353 1129.78745474316 1104 368 584 642576 374469504
58	3005255 191430 84 78289 0.1 1129.7 11297 0 17520 6419920 42157728000
59	3196685 29549 84 78289 5.53000684353 1129.78745474316 1104 0 0 0 0
60	3226234 31757 84 78289 5.53000684353 1129.78745474316 1104 368 584 642576 374469504
61	3257991 191430 84 78289 0.1 1129.7 11297 0 17520 6419920 42157728000
62	3449421 30653 84 78289 5.53000684353 1129.78745474316 1104 46 73 80322 5851086
63	3480074 29549 84 78289 5.53000684353 1129.78745474316 1104 0 0 0 0
64	3509623 29549 84 78289 5.53000684353 1129.78745474316 1104 0 0 0 0
65	3539172 30656 89 78293 5.53000741953 1129.78745539116 1104 64 73 80502 5870886
66	3569828 30656 90 78297 5.53000746953 1129.78745544116 1104 64 73 80502 5870886
67	3600484 30656 90 78297 5.53000746953 1129.78745544116 1104 64 73 80502 5870886
68	3631140 30656 91 78298 5.53000746953 1129.78745544116 1104 46 55 60630 3330510
69	3661796 274 92 75707 5.53000746953 1092.35481231884 10 28 28 280 7840
70	3662070 274 93 75708 5.53000746953 1092.35481231884 10 28 28 280 7840
71	3662344 284 94 75709 5.53000746953 1092.35481231884 10 368 368 3680 1354240
72	3662628 181980 94 75709 0.1 1092.3 10923 0 3680 33120 121881600
73	3844608 264 94 75709 5.53000746953 1092.35481231884 10 0 0 0 0
74	3844872 284 94 75709 5.53000746953 1092.35481231884 10 368 368 3680 1354240
75	3845156 181980 94 75709 0.1 1092.3 10923 0 3680 33120 121881600
76	4027136 274 94 75709 5.53000746953 1092.35481231884 10 46 46 460 21160
77	4027410 264 94 75709 5.53000746953 1092.35481231884 10 0 0 0 0
78	4027674 264 94 75709 5.53000746953 1092.35481231884 10 0 0 0 0
79	4027938 274 96 75714 5.53000804553 1092.35481289484 10 64 64 640 40960
80	4028212 274 97 75715 5.53000809553 1092.35481294484 10 64 64 640 40960
81	4028486 274 97 75715 5.53000809553 1092.35481294484 10 64 64 640 40960
82	4028760 274 98 75716 5.53000809553 1092.35481294484 10 46 46 460 21160
83	4029034 31476 107 78300 5.53000879353 1129.78745544116 1094 440 440 481360 211798400
84	4060510 191210 107 78300 0.1 1128.4 11284 0 13200 4809200 23561120000
85	4251720 29260 107 78204 5.53000879353 1127.08214321043 1093 0 0 0 0
86	4280980 31446 107 78204 5.53000879353 1127.08214321043 1093 440 440 480920 211604800
87	4312426 190957 107 78204 0.1 1127 11270 0 13200 4804800 23541760000
88	4503383 30353 107 78204 5.53000879353 1127.08214321043 1093 62 62 67766 4201492
89	4533736 29260 107 78204 5.53000879353 1127.08214321043 1093 0 0 0 0
90	4562996 29260 107 78204 5.53000879353 1127.08214321043 1093 0 0 0 0
91	4592256 30349 110 78210 5.53000933953 1127.08214375643 1093 62 62 67766 4201492
92	4622605 30349 110 78210 5.53000933953 1127.08214375643 1093 55 55 60115 3306325
93	4652954 31443 113 78217 5.54000977953 1127.09214419643 1093 440 440 480920 211604800
94	4684397 190938 113 78217 0.1 1127 11270 0 8800 4804800 23735360000
95	4875335 29257 113 78217 5.54000977953 1127.09214419643 1093 0 0 0 0
96	4904592 31443 113 78217 5.54000977953 1127.09214419643 1093 440 440 480920 211604800
97	4936035 190938 113 78217 0.1 1127 11270 0 8800 4804800 23735360000
98	5126973 30350 113 78217 5.54000977953 1127.09214419643 1093 62 62 67766 4201492
99	5157323 29257 113 78217 5.54000977953 1127.09214419643 1093 0 0 0 0
100	5186580 30350 113 78217 5.54000977953 1127.09214419643 1093 0 0 0 0
101	5216930 31444 115 78219 5.54001032553 1127.09214474243 1093 62 62 67766 4201492
102	5248374 31444 115 78219 5.54001032553 1127.09214474243 1093 55 55 60115 3306325
103	5279818 285 116 75736 5.54001032553 1092.36481517484 10 28 28 280 7840
104	5280103 31729 117 78221 5.54001032553 1127.09214474243 1103 28 55 60395 3314165
105	5311832 32832 118 78222 5.54001032553 1127.09214474243 1103 368 584 641992 374128448
106	5344664 202275 118 78222 0.1 1127 11270 0 15360 6414080 42464678400
107	5546939 30626 118 78222 5.54001032553 1127.09214474243 1103 0 0 0 0
108	5577565 32832 118 78222 5.54001032553 1127.09214474243 1103 368 584 641992 374128448
109	5610397 202275 118 78222 0.1 1127 11270 0 15360 6414080 42464678400
110	5812672 31729 118 78222 5.54001032553 1127.09214474243 1103 46 73 80249 5845757
111	5844401 30626 118 78222 5.54001032553 1127.09214474243 1103 0 0 0 0
112	5875027 30626 118 78222 5.54001032553 1127.09214474243 1103 0 0 0 0
113	5905653 31731 119 78223 5.54001090153 1127.09214539043 1103 64 73 80429 5865557
114	5937384 31731 120 78224 5.54001095153 1127.09214544043 1103 64 73 80429 5865557
115	5969115 31731 120 78224 5.54001095153 1127.09214544043 1103 64 73 80429 5865557
116	6000846 31731 121 78225 5.54001095153 1127.09214544043 1103 46 55 60575 3327485
117	6032577 285 122 75742 5.54001095153 1092.36481580084 10 28 28 280 7840
118	6032862 285 123 75743 5.54001095153 1092.36481580084 10 28 28 280 7840
119	6033147 295 124 75744 5.54001095153 1092.36481580084 10 368 368 3680 1354240
120	6033442 192957 124 75744 0.1 1092.3 10923 0 3680 33120 121881600
121	6226399 275 124 75744 5.54001095153 1092.36481580084 10 0 0 0 0
122	6226674 295 124 75744 5.54001095153 1092.36481580084 10 368 368 3680 1354240
123	6226969 192957 124 75744 0.1 1092.3 10923 0 3680 33120 121881600
124	6419926 285 124 75744 5.54001095153 1092.36481580084 10 46 46 460 21160
125	6420211 275 124 75744 5.54001095153 1092.36481580084 10 0 0 0 0
126	6420486 275 124 75744 5.54001095153 1092.36481580084 10 0 0 0 0
127	6420761 285 126 75746 5.54001152753 1092.36481637684 10 64 64 640 40960
128	6421046 285 127 75747 5.54001157753 1092.36481642684 10 64 64 640 40960
129	6421331 285 127 75747 5.54001157753 1092.36481642684 10 64 64 640 40960
130	6421616 285 128 75748 5.54001157753 1092.36481642684 10 46 46 460 21160
131	6421901 31446 137 78227 5.54001227553 1127.09214544043 1093 35 35 38255 1338925
132	6453347 3909 138 77462 5.54001227553 1117.3550915001 94 1.7749236643228 217056.38083129 3821425.3627877 332285865256.47
133	6457256 4003 138 77462 5.54001227553 1117.3550915001 94 -97.014572760268 -62.63427442633 -6766.4926329356 489718.20732725
134	6461259 3892 138 77462 5.54001227553 1117.3550915001 94 5.54001227553 1117.3550915001 53685.604937068 40324888.720815
135	6465151 30359 150 77696 6.5300048667 1120.14508923128 1092 0 3 1086 2166
136	6495510 2661 153 77462 6.74001227553 1117.3550915001 93 0 92 4278 263810
137	6498171 2666 166 76615 7.87201139982 1104.8916187049 96 7 7 672 4704
138	6500837 2762 166 76615 7.87201139982 1104.8916187049 96 14 14 1344 18816
139	6503599 2762 167 76616 7.87201139982 1104.8916187049 96 80 80 7680 614400
140	6506361 195173 167 76616 0.1 1104.8 11048 0 1600 76000 62080000
141	6701534 3144 167 76676 7.87201139982 1105.25056390997 96 0 12.26711366341 176.85467223596 1221.7877275509
142	6704678 2764 167 76676 7.87201139982 1105.25056390997 96 80 80 7680 614400
143	6707442 195242 167 76676 0.1 1105.2 11052 0 800 76000 60800000
144	6902684 37538 167 77031 7.87201139982 1110.14274018116 879 -10.928843658375 0 -4450.577640699 30397.312789345
145	6940222 10670 167 76756 7.87201139982 1106.14274018116 384 0 2 384 576
146	6950892 3783 167 76676 7.87201139982 1105.25056390997 136 0 3 70 112
147	6954675 3850 167 76676 7.87201139982 1105.25056390997 136 0 240 5600 716800
148	6958525 3989 218 76804 7.90153574901 1106.48008867801 96 4.0290059885056 457162.22995226 6747542.8922878 1171568757766.4
149	6962514 4089 218 76804 7.90153574901 1106.48008867801 96 -105.78830154644 -59.399296575438 -6808.7975265935 487660.81441711
150	6966603 3967 218 76804 7.90153574901 1106.48008867801 96 7.90153574901 1106.480088678 54634.11248931 42680409.68005
151	6970570 3594 220 78175 7.95874504566 1127.06262167669 129 7 7 903 6321
152	6974164 3723 220 78175 7.95874504566 1127.06262167669 129 14 14 1806 25284
153	6977887 3723 221 78176 7.95874504566 1127.06262167669 129 80 80 10320 825600
154	6981610 199574 221 78176 0.1 1127 11270 0 800 102400 81920000
155	7181184 4354 221 78176 7.95874504566 1127.06262167669 129 0 24.42095060618 383.52368485357 4458.785566169
156	7185538 3730 221 78176 7.95874504566 1127.06262167669 129 80 80 10320 825600
157	7189268 199574 221 78176 0.1 1127 11270 0 800 102400 81920000
158	7388842 49796 221 78261 7.95874504566 1129.08214167669 1165 -17.603454906025 0 -9753.2703580787 117848.35606597
159	7438638 14398 221 78188 7.95874504566 1127.08214167669 516 0 2 516 774
160	7453036 5331 221 78176 7.95874504566 1127.06262167669 191 0 5 158 398
161	7458367 5456 221 78176 7.95874504566 1127.06262167669 191 0 400 12640 2547200
162	7463823 5420 271 78249 7.98827164416 1128.29214544043 130 35.867319085554 1213177.8159058 13308503.583863 6291359368499.8
163	7469243 5546 271 78249 7.98827164416 1128.29214544043 130 -92.566707228963 -55.160755397707 -9336.483953543 678313.10181633
164	7474789 5405 271 78249 7.98827164416 1128.29214544043 130 7.98827164416 1128.2921454404 80439.435136551 62651856.305981
165	7480194 30186 283 77031 8.89153139982 1110.14274018116 1088 0 3 1072 2128
166	7510380 40681 285 78261 8.97826504566 1129.08214167669 1458 0 3 1437 2853
167	7551061 3244 286 77554 8.98560388484 1119.6860815177 117 7 7 819 5733
168	7554305 3361 286 77554 8.98560388484 1119.6860815177 117 14 14 1638 22932
169	7557666 3361 287 77555 8.98560388484 1119.6860815177 117 80 80 9360 748800
170	7561027 198072 287 77555 0.1 1119.6 11196 0 800 92800 74240000
171	7759099 3856 287 77555 8.98560388484 1119.6860815177 117 0 13.2534319462 248.7290754211 1768.2647402703
172	7762955 3362 287 77555 8.98560388484 1119.6860815177 117 80 80 9360 748800
173	7766317 198072 287 77555 0.1 1119.6 11196 0 800 92800 74240000
174	7964389 42676 287 77958 8.98560388484 1123.7056015177 1001 -16.437214807259 0 -8820.7459104068 102528.43168359
175	8007065 12980 287 77568 8.98560388484 1119.7056015177 468 0 2 468 702
176	8020045 4653 287 77555 8.98560388484 1119.6860815177 168 0 3 87 127
177	8024698 4739 287 77555 8.98560388484 1119.6860815177 168 0 240 6960 812800
178	8029437 4862 341 77741 9.0151281405 1120.9156060749 117 38.679420505944 3207247.5643098 24673934.28297 25892424964535
179	8034299 4985 341 77741 9.0151281405 1120.9156060749 117 -86.731629375983 -50.938675160104 -7982.9444999169 551086.80347077
180	8039284 4848 341 77741 9.0151281405 1120.9156060749 117 9.0151281405 1120.9156060749 65261.27987014 49328205.153683
181	8044132 2717 344 76804 9.10153574901 1106.48008867801 95 0 95 4468 281856
182	8046849 3738 345 78249 9.18827164416 1128.29214544043 129 0 128 8256 707264
183	8050587 2952 347 77036 9.23223131471 1110.36244859099 107 7 7 749 5243
184	8053539 3059 347 77036 9.23223131471 1110.36244859099 107 14 14 1498 20972
185	8056598 3059 348 77037 9.23223131471 1110.36244859099 107 80 80 8560 684800
186	8059657 196297 348 77037 0.1 1110.3 11103 0 800 84800 67840000
187	8255954 3565 348 77612 9.23223131471 1119.74350744836 107 0 9.60686309963 189.510501789 1014.7584774685
188	8259519 3062 348 77612 9.23223131471 1119.74350744836 107 80 80 8560 684800
189	8262581 198038 348 77612 0.1 1119.7 11197 0 800 84800 67840000
[...]
94	482641422 648806 438088 438088 40380.4 43657.1 32768 0 0 0 0
94	483290228 648808 438088 438088 43657.2 46933.9 32768 0 0 0 0
94	483939036 648806 438088 438088 46934 50210.7 32768 0 0 0 0
94	484587842 648806 438088 438088 50210.8 53487.5 32768 0 0 0 0
94	485236648 648806 438088 438088 53487.6 56764.3 32768 0 0 0 0
94	485885454 648806 438088 438088 56764.4 60041.1 32768 0 0 0 0
94	486534260 648808 438088 438088 60041.2 63317.9 32768 0 0 0 0
94	487183068 648806 438088 438088 63318 66594.7 32768 0 0 0 0
94	487831874 648806 438088 438088 66594.8 69871.5 32768 0 0 0 0
94	488480680 648806 438088 438088 69871.6 73148.3 32768 0 0 0 0
94	489129486 648806 438088 438088 73148.4 76425.1 32768 0 0 0 0
94	489778292 648808 438088 438088 76425.2 79701.9 32768 0 0 0 0
94	490427100 648806 438088 438088 79702 82978.7 32768 0 0 0 0
94	491075906 648806 438088 438088 82978.8 86255.5 32768 0 0 0 0
vector 281 LoRaNetwork_straight.internetCloud.ppp[1].queue outgoingDataRate:vector ETV
attr interpolationmode linear
attr recordingmode vector
attr source throughput(packetPulled)
attr title "outgoing datarate"
attr unit bps
281	491724937 637711 438088 438088 0.1 3276.8 32768 0 0 0 0
281	492362648 648806 438088 438088 3276.9 6553.6 32768 0 0 0 0
281	493011454 648806 438088 438088 6553.7 9830.4 32768 0 0 0 0
281	493660260 679879 438088 438088 9830.5 13107.2 32768 0 0 0 0
281	494340139 681574 438088 438088 13107.3 16384 32768 0 0 0 0
281	495021713 681576 438088 438088 16384.1 19660.8 32768 0 0 0 0
281	495703289 681574 438088 438088 19660.9 22937.6 32768 0 0 0 0
281	496384863 681574 438088 438088 22937.7 26214.4 32768 0 0 0 0
281	497066437 681574 438088 438088 26214.5 29491.2 32768 0 0 0 0
281	497748011 681574 438088 438088 29491.3 32768 32768 0 0 0 0
281	498429585 681576 438088 438088 32768.1 36044.8 32768 0 0 0 0
281	499111161 681574 438088 438088 36044.9 39321.6 32768 0 0 0 0
281	499792735 681574 438088 438088 39321.7 42598.4 32768 0 0 0 0
281	500474309 681574 438088 438088 42598.5 45875.2 32768 0 0 0 0
281	501155883 681574 438088 438088 45875.3 49152 32768 0 0 0 0
281	501837457 681576 438088 438088 49152.1 52428.8 32768 0 0 0 0
281	502519033 681574 438088 438088 52428.9 55705.6 32768 0 0 0 0
281	503200607 681574 438088 438088 55705.7 58982.4 32768 0 0 0 0
281	503882181 681574 438088 438088 58982.5 62259.2 32768 0 0 0 0
281	504563755 681574 438088 438088 62259.3 65536 32768 0 0 0 0
281	505245329 681576 438088 438088 65536.1 68812.8 32768 0 0 0 0
281	505926905 681574 438088 438088 68812.9 72089.6 32768 0 0 0 0
281	506608479 681574 438088 438088 72089.7 75366.4 32768 0 0 0 0
281	507290053 681574 438088 438088 75366.5 78643.2 32768 0 0 0 0
281	507971627 681574 438088 438088 78643.3 81920 32768 0 0 0 0
281	508653201 681576 438088 438088 81920.1 85196.8 32768 0 0 0 0
vector 282 LoRaNetwork_straight.internetCloud.ppp[1].queue incomingDataRate:vector ETV
attr interpolationmode linear
attr recordingmode vector
attr source throughput(packetPushStarted)
attr title "incoming datarate"
attr unit bps
282	509335007 637711 438088 438088 0.1 3276.8 32768 0 0 0 0
282	509972718 648806 438088 438088 3276.9 6553.6 32768 0 0 0 0
282	510621524 648806 438088 438088 6553.7 9830.4 32768 0 0 0 0
282	511270330 679879 438088 438088 9830.5 13107.2 32768 0 0 0 0
282	511950209 681574 438088 438088 13107.3 16384 32768 0 0 0 0
282	512631783 681576 438088 438088 16384.1 19660.8 32768 0 0 0 0
282	513313359 681574 438088 438088 19660.9 22937.6 32768 0 0 0 0
282	513994933 681574 438088 438088 22937.7 26214.4 32768 0 0 0 0
282	514676507 681574 438088 438088 26214.5 29491.2 32768 0 0 0 0
282	515358081 681574 438088 438088 29491.3 32768 32768 0 0 0 0
282	516039655 681576 438088 438088 32768.1 36044.8 32768 0 0 0 0
282	516721231 681574 438088 438088 36044.9 39321.6 32768 0 0 0 0
282	517402805 681574 438088 438088 39321.7 42598.4 32768 0 0 0 0
282	518084379 681574 438088 438088 42598.5 45875.2 32768 0 0 0 0
282	518765953 681574 438088 438088 45875.3 49152 32768 0 0 0 0
282	519447527 681576 438088 438088 49152.1 52428.8 32768 0 0 0 0
282	520129103 681574 438088 438088 52428.9 55705.6 32768 0 0 0 0
282	520810677 681574 438088 438088 55705.7 58982.4 32768 0 0 0 0
282	521492251 681574 438088 438088 58982.5 62259.2 32768 0 0 0 0
282	522173825 681574 438088 438088 62259.3 65536 32768 0 0 0 0
282	522855399 681576 438088 438088 65536.1 68812.8 32768 0 0 0 0
282	523536975 681574 438088 438088 68812.9 72089.6 32768 0 0 0 0
282	524218549 681574 438088 438088 72089.7 75366.4 32768 0 0 0 0
282	524900123 681574 438088 438088 75366.5 78643.2 32768 0 0 0 0
282	525581697 681574 438088 438088 78643.3 81920 32768 0 0 0 0
282	526263271 681576 438088 438088 81920.1 85196.8 32768 0 0 0 0
87	526944847 624933 438088 438088 7612.4 10889.1 32768 0 4400 4400 19360000
87	527569780 648808 438088 438088 10889.2 14165.9 32768 0 0 0 0
87	528218588 648806 438088 438088 14166 17442.7 32768 0 0 0 0
87	528867394 648806 438088 438088 17442.8 20719.5 32768 0 0 0 0
87	529516200 648806 438088 438088 20719.6 23996.3 32768 0 0 0 0
87	530165006 648806 438088 438088 23996.4 27273.1 32768 0 0 0 0
87	530813812 648808 438088 438088 27273.2 30549.9 32768 0 0 0 0
87	531462620 648806 438088 438088 30550 33826.7 32768 0 0 0 0
87	532111426 648806 438088 438088 33826.8 37103.5 32768 0 0 0 0
87	532760232 648806 438088 438088 37103.6 40380.3 32768 0 0 0 0
87	533409038 648806 438088 438088 40380.4 43657.1 32768 0 0 0 0
87	534057844 648808 438088 438088 43657.2 46933.9 32768 0 0 0 0
87	534706652 648806 438088 438088 46934 50210.7 32768 0 0 0 0
87	535355458 648806 438088 438088 50210.8 53487.5 32768 0 0 0 0
87	536004264 648806 438088 438088 53487.6 56764.3 32768 0 0 0 0
87	536653070 648806 438088 438088 56764.4 60041.1 32768 0 0 0 0
87	537301876 648808 438088 438088 60041.2 63317.9 32768 0 0 0 0
87	537950684 648806 438088 438088 63318 66594.7 32768 0 0 0 0
87	538599490 648806 438088 438088 66594.8 69871.5 32768 0 0 0 0
87	539248296 648806 438088 438088 69871.6 73148.3 32768 0 0 0 0
87	539897102 648806 438088 438088 73148.4 76425.1 32768 0 0 0 0
87	540545908 648808 438088 438088 76425.2 79701.9 32768 0 0 0 0
87	541194716 648806 438088 438088 79702 82978.7 32768 0 0 0 0
87	541843522 648806 438088 438088 82978.8 86255.5 32768 0 0 0 0
84	542492328 624933 438088 438088 7612.4 10889.1 32768 0 4400 4400 19360000
84	543117261 648808 438088 438088 10889.2 14165.9 32768 0 0 0 0
84	543766069 648806 438088 438088 14166 17442.7 32768 0 0 0 0
84	544414875 648806 438088 438088 17442.8 20719.5 32768 0 0 0 0
84	545063681 648806 438088 438088 20719.6 23996.3 32768 0 0 0 0
84	545712487 648806 438088 438088 23996.4 27273.1 32768 0 0 0 0
84	546361293 648808 438088 438088 27273.2 30549.9 32768 0 0 0 0
84	547010101 648806 438088 438088 30550 33826.7 32768 0 0 0 0
84	547658907 648806 438088 438088 33826.8 37103.5 32768 0 0 0 0
84	548307713 648806 438088 438088 37103.6 40380.3 32768 0 0 0 0
84	548956519 648806 438088 438088 40380.4 43657.1 32768 0 0 0 0
84	549605325 648808 438088 438088 43657.2 46933.9 32768 0 0 0 0
84	550254133 648806 438088 438088 46934 50210.7 32768 0 0 0 0
84	550902939 648806 438088 438088 50210.8 53487.5 32768 0 0 0 0
84	551551745 648806 438088 438088 53487.6 56764.3 32768 0 0 0 0
84	552200551 648806 438088 438088 56764.4 60041.1 32768 0 0 0 0
84	552849357 648808 438088 438088 60041.2 63317.9 32768 0 0 0 0
84	553498165 648806 438088 438088 63318 66594.7 32768 0 0 0 0
84	554146971 648806 438088 438088 66594.8 69871.5 32768 0 0 0 0
84	554795777 648806 438088 438088 69871.6 73148.3 32768 0 0 0 0
84	555444583 648806 438088 438088 73148.4 76425.1 32768 0 0 0 0
84	556093389 648808 438088 438088 76425.2 79701.9 32768 0 0 0 0
84	556742197 648806 438088 438088 79702 82978.7 32768 0 0 0 0
84	557391003 648806 438088 438088 82978.8 86255.5 32768 0 0 0 0
75	558039809 624108 438088 438088 7529.9 10806.6 32768 0 3680 3680 13542400
75	558663917 648806 438088 438088 10806.7 14083.4 32768 0 0 0 0
75	559312723 648806 438088 438088 14083.5 17360.2 32768 0 0 0 0
75	559961529 648806 438088 438088 17360.3 20637 32768 0 0 0 0
75	560610335 648808 438088 438088 20637.1 23913.8 32768 0 0 0 0
75	561259143 648806 438088 438088 23913.9 27190.6 32768 0 0 0 0
75	561907949 648806 438088 438088 27190.7 30467.4 32768 0 0 0 0
75	562556755 648806 438088 438088 30467.5 33744.2 32768 0 0 0 0
75	563205561 648806 438088 438088 33744.3 37021 32768 0 0 0 0
75	563854367 648808 438088 438088 37021.1 40297.8 32768 0 0 0 0
75	564503175 648806 438088 438088 40297.9 43574.6 32768 0 0 0 0
75	565151981 648806 438088 438088 43574.7 46851.4 32768 0 0 0 0
75	565800787 648806 438088 438088 46851.5 50128.2 32768 0 0 0 0
75	566449593 648806 438088 438088 50128.3 53405 32768 0 0 0 0
75	567098399 648808 438088 438088 53405.1 56681.8 32768 0 0 0 0
75	567747207 648806 438088 438088 56681.9 59958.6 32768 0 0 0 0
75	568396013 648806 438088 438088 59958.7 63235.4 32768 0 0 0 0
75	569044819 648806 438088 438088 63235.5 66512.2 32768 0 0 0 0
75	569693625 648806 438088 438088 66512.3 69789 32768 0 0 0 0
75	570342431 648808 438088 438088 69789.1 73065.8 32768 0 0 0 0
75	570991239 648806 438088 438088 73065.9 76342.6 32768 0 0 0 0
75	571640045 648806 438088 438088 76342.7 79619.4 32768 0 0 0 0
75	572288851 648806 438088 438088 79619.5 82896.2 32768 0 0 0 0
75	572937657 648806 438088 438088 82896.3 86173 32768 0 0 0 0
72	573586463 624108 438088 438088 7529.9 10806.6 32768 0 3680 3680 13542400
72	574210571 648806 438088 438088 10806.7 14083.4 32768 0 0 0 0
72	574859377 648806 438088 438088 14083.5 17360.2 32768 0 0 0 0
72	575508183 648806 438088 438088 17360.3 20637 32768 0 0 0 0
72	576156989 648808 438088 438088 20637.1 23913.8 32768 0 0 0 0
72	576805797 648806 438088 438088 23913.9 27190.6 32768 0 0 0 0
72	577454603 648806 438088 438088 27190.7 30467.4 32768 0 0 0 0
72	578103409 648806 438088 438088 30467.5 33744.2 32768 0 0 0 0
72	578752215 648806 438088 438088 33744.3 37021 32768 0 0 0 0
72	579401021 648808 438088 438088 37021.1 40297.8 32768 0 0 0 0
72	580049829 648806 438088 438088 40297.9 43574.6 32768 0 0 0 0
72	580698635 648806 438088 438088 43574.7 46851.4 32768 0 0 0 0
72	581347441 648806 438088 438088 46851.5 50128.2 32768 0 0 0 0
72	581996247 648806 438088 438088 50128.3 53405 32768 0 0 0 0
72	582645053 648808 438088 438088 53405.1 56681.8 32768 0 0 0 0
72	583293861 648806 438088 438088 56681.9 59958.6 32768 0 0 0 0
72	583942667 648806 438088 438088 59958.7 63235.4 32768 0 0 0 0
72	584591473 648806 438088 438088 63235.5 66512.2 32768 0 0 0 0
72	585240279 648806 438088 438088 66512.3 69789 32768 0 0 0 0
72	585889085 648808 438088 438088 69789.1 73065.8 32768 0 0 0 0
72	586537893 648806 438088 438088 73065.9 76342.6 32768 0 0 0 0
72	587186699 648806 438088 438088 76342.7 79619.4 32768 0 0 0 0
72	587835505 648806 438088 438088 79619.5 82896.2 32768 0 0 0 0
72	588484311 648806 438088 438088 82896.3 86173 32768 0 0 0 0
vector 283 LoRaNetwork_straight.nsRouter.ppp[0].queue outgoingDataRate:vector ETV
attr interpolationmode linear
attr recordingmode vector
attr source throughput(packetPulled)
attr title "outgoing datarate"
attr unit bps
283	589133337 637711 438088 438088 0.1 3276.8 32768 0 0 0 0
283	589771048 648806 438088 438088 3276.9 6553.6 32768 0 0 0 0
283	590419854 648806 438088 438088 6553.7 9830.4 32768 0 0 0 0
283	591068660 679879 438088 438088 9830.5 13107.2 32768 0 0 0 0
283	591748539 681574 438088 438088 13107.3 16384 32768 0 0 0 0
283	592430113 681576 438088 438088 16384.1 19660.8 32768 0 0 0 0
283	593111689 681574 438088 438088 19660.9 22937.6 32768 0 0 0 0
283	593793263 681574 438088 438088 22937.7 26214.4 32768 0 0 0 0
283	594474837 681574 438088 438088 26214.5 29491.2 32768 0 0 0 0
283	595156411 681574 438088 438088 29491.3 32768 32768 0 0 0 0
283	595837985 681576 438088 438088 32768.1 36044.8 32768 0 0 0 0
283	596519561 681574 438088 438088 36044.9 39321.6 32768 0 0 0 0
283	597201135 681574 438088 438088 39321.7 42598.4 32768 0 0 0 0
283	597882709 681574 438088 438088 42598.5 45875.2 32768 0 0 0 0
283	598564283 681574 438088 438088 45875.3 49152 32768 0 0 0 0
283	599245857 681576 438088 438088 49152.1 52428.8 32768 0 0 0 0
283	599927433 681574 438088 438088 52428.9 55705.6 32768 0 0 0 0
283	600609007 681574 438088 438088 55705.7 58982.4 32768 0 0 0 0
283	601290581 681574 438088 438088 58982.5 62259.2 32768 0 0 0 0
283	601972155 681574 438088 438088 62259.3 65536 32768 0 0 0 0
283	602653729 681576 438088 438088 65536.1 68812.8 32768 0 0 0 0
283	603335305 681574 438088 438088 68812.9 72089.6 32768 0 0 0 0
283	604016879 681574 438088 438088 72089.7 75366.4 32768 0 0 0 0
283	604698453 681574 438088 438088 75366.5 78643.2 32768 0 0 0 0
283	605380027 681574 438088 438088 78643.3 81920 32768 0 0 0 0
283	606061601 681576 438088 438088 81920.1 85196.8 32768 0 0 0 0
vector 284 LoRaNetwork_straight.nsRouter.ppp[0].queue incomingDataRate:vector ETV
attr interpolationmode linear
attr recordingmode vector
attr source throughput(packetPushStarted)
attr title "incoming datarate"
attr unit bps
284	606743402 637711 438088 438088 0.1 3276.8 32768 0 0 0 0
284	607381113 648806 438088 438088 3276.9 6553.6 32768 0 0 0 0
284	608029919 648806 438088 438088 6553.7 9830.4 32768 0 0 0 0
284	608678725 679879 438088 438088 9830.5 13107.2 32768 0 0 0 0
284	609358604 681574 438088 438088 13107.3 16384 32768 0 0 0 0
284	610040178 681576 438088 438088 16384.1 19660.8 32768 0 0 0 0
284	610721754 681574 438088 438088 19660.9 22937.6 32768 0 0 0 0
284	611403328 681574 438088 438088 22937.7 26214.4 32768 0 0 0 0
284	612084902 681574 438088 438088 26214.5 29491.2 32768 0 0 0 0
284	612766476 681574 438088 438088 29491.3 32768 32768 0 0 0 0
284	613448050 681576 438088 438088 32768.1 36044.8 32768 0 0 0 0
284	614129626 681574 438088 438088 36044.9 39321.6 32768 0 0 0 0
284	614811200 681574 438088 438088 39321.7 42598.4 32768 0 0 0 0
284	615492774 681574 438088 438088 42598.5 45875.2 32768 0 0 0 0
284	616174348 681574 438088 438088 45875.3 49152 32768 0 0 0 0
284	616855922 681576 438088 438088 49152.1 52428.8 32768 0 0 0 0
284	617537498 681574 438088 438088 52428.9 55705.6 32768 0 0 0 0
284	618219072 681574 438088 438088 55705.7 58982.4 32768 0 0 0 0
284	618900646 681574 438088 438088 58982.5 62259.2 32768 0 0 0 0
284	619582220 681574 438088 438088 62259.3 65536 32768 0 0 0 0
284	620263794 681576 438088 438088 65536.1 68812.8 32768 0 0 0 0
284	620945370 681574 438088 438088 68812.9 72089.6 32768 0 0 0 0
284	621626944 681574 438088 438088 72089.7 75366.4 32768 0 0 0 0
284	622308518 681574 438088 438088 75366.5 78643.2 32768 0 0 0 0
284	622990092 681574 438088 438088 78643.3 81920 32768 0 0 0 0
284	623671666 681576 438088 438088 81920.1 85196.8 32768 0 0 0 0
109	624353242 657701 438088 438088 7612.4 10889.1 32768 0 5840 5840 34105600
109	625010943 681576 438088 438088 10889.2 14165.9 32768 0 0 0 0
109	625692519 681574 438088 438088 14166 17442.7 32768 0 0 0 0
109	626374093 681574 438088 438088 17442.8 20719.5 32768 0 0 0 0
109	627055667 681574 438088 438088 20719.6 23996.3 32768 0 0 0 0
109	627737241 681574 438088 438088 23996.4 27273.1 32768 0 0 0 0
109	628418815 681576 438088 438088 27273.2 30549.9 32768 0 0 0 0
109	629100391 681574 438088 438088 30550 33826.7 32768 0 0 0 0
109	629781965 681574 438088 438088 33826.8 37103.5 32768 0 0 0 0
109	630463539 681574 438088 438088 37103.6 40380.3 32768 0 0 0 0
109	631145113 681574 438088 438088 40380.4 43657.1 32768 0 0 0 0
109	631826687 681576 438088 438088 43657.2 46933.9 32768 0 0 0 0
109	632508263 681574 438088 438088 46934 50210.7 32768 0 0 0 0
109	633189837 681574 438088 438088 50210.8 53487.5 32768 0 0 0 0
109	633871411 681574 438088 438088 53487.6 56764.3 32768 0 0 0 0
109	634552985 681574 438088 438088 56764.4 60041.1 32768 0 0 0 0
109	635234559 681576 438088 438088 60041.2 63317.9 32768 0 0 0 0
109	635916135 681574 438088 438088 63318 66594.7 32768 0 0 0 0
109	636597709 681574 438088 438088 66594.8 69871.5 32768 0 0 0 0
109	637279283 681574 438088 438088 69871.6 73148.3 32768 0 0 0 0
109	637960857 681574 438088 438088 73148.4 76425.1 32768 0 0 0 0
109	638642431 681576 438088 438088 76425.2 79701.9 32768 0 0 0 0
109	639324007 681574 438088 438088 79702 82978.7 32768 0 0 0 0
109	640005581 681574 438088 438088 82978.8 86255.5 32768 0 0 0 0
106	640687155 657701 438088 438088 7612.4 10889.1 32768 0 5840 5840 34105600
106	641344856 681576 438088 438088 10889.2 14165.9 32768 0 0 0 0
106	642026432 681574 438088 438088 14166 17442.7 32768 0 0 0 0
106	642708006 681574 438088 438088 17442.8 20719.5 32768 0 0 0 0
106	643389580 681574 438088 438088 20719.6 23996.3 32768 0 0 0 0
106	644071154 681574 438088 438088 23996.4 27273.1 32768 0 0 0 0
106	644752728 681576 438088 438088 27273.2 30549.9 32768 0 0 0 0
106	645434304 681574 438088 438088 30550 33826.7 32768 0 0 0 0
106	646115878 681574 438088 438088 33826.8 37103.5 32768 0 0 0 0
106	646797452 681574 438088 438088 37103.6 40380.3 32768 0 0 0 0
106	647479026 681574 438088 438088 40380.4 43657.1 32768 0 0 0 0
106	648160600 681576 438088 438088 43657.2 46933.9 32768 0 0 0 0
106	648842176 681574 438088 438088 46934 50210.7 32768 0 0 0 0
106	649523750 681574 438088 438088 50210.8 53487.5 32768 0 0 0 0
106	650205324 681574 438088 438088 53487.6 56764.3 32768 0 0 0 0
106	650886898 681574 438088 438088 56764.4 60041.1 32768 0 0 0 0
106	651568472 681576 438088 438088 60041.2 63317.9 32768 0 0 0 0
106	652250048 681574 438088 438088 63318 66594.7 32768 0 0 0 0
106	652931622 681574 438088 438088 66594.8 69871.5 32768 0 0 0 0
106	653613196 681574 438088 438088 69871.6 73148.3 32768 0 0 0 0
106	654294770 681574 438088 438088 73148.4 76425.1 32768 0 0 0 0
106	654976344 681576 438088 438088 76425.2 79701.9 32768 0 0 0 0
106	655657920 681574 438088 438088 79702 82978.7 32768 0 0 0 0
106	656339494 681574 438088 438088 82978.8 86255.5 32768 0 0 0 0
46	657021068 71556 438088 438088 86038.7 86400 3614 0 0 0 0
49	657092624 33164 438088 438088 86232.6 86400 1675 0 0 0 0
58	657125788 28610 438088 438088 86255.6 86400 1445 0 0 0 0
61	657154398 28610 438088 438088 86255.6 86400 1445 0 0 0 0
72	657183008 44946 438088 438088 86173.1 86400 2270 0 0 0 0
75	657227954 44946 438088 438088 86173.1 86400 2270 0 0 0 0
84	657272900 28610 438088 438088 86255.6 86400 1445 0 0 0 0
87	657301510 28610 438088 438088 86255.6 86400 1445 0 0 0 0
94	657330120 28610 438088 438088 86255.6 86400 1445 0 0 0 0
97	657358730 28610 438088 438088 86255.6 86400 1445 0 0 0 0
106	657387340 30055 438088 438088 86255.6 86400 1445 0 0 0 0
109	657417395 30055 438088 438088 86255.6 86400 1445 0 0 0 0
120	657447450 47216 438088 438088 86173.1 86400 2270 0 0 0 0
123	657494666 47216 438088 438088 86173.1 86400 2270 0 0 0 0
140	657541882 225680 438088 438088 85315.1 86400 10850 0 0 0 0
143	657767562 225056 438088 438088 85318.1 86400 10820 0 0 0 0
154	657992618 496017 438088 438088 84015.4 86400 23847 0 0 0 0
157	658488635 119411 438088 438088 85826 86400 5741 0 0 0 0
170	658608046 459014 438088 438088 84193.3 86400 22068 0 0 0 0
173	659067060 459014 438088 438088 84193.3 86400 22068 0 0 0 0
186	659526074 271688 438088 438088 85093.9 86400 13062 0 0 0 0
189	659797762 271688 438088 438088 85093.9 86400 13062 0 0 0 0
200	660069450 14850 438088 438088 86328.7 86400 714 0 0 0 0
203	660084300 30055 438088 438088 86255.6 86400 1445 0 0 0 0
220	660114355 487052 438088 438088 84058.5 86400 23416 0 0 0 0
223	660601407 486720 438088 438088 84060.1 86400 23400 0 0 0 0
236	661088127 422925 438088 438088 84366.8 86400 20333 0 0 0 0
239	661511052 422925 438088 438088 84366.8 86400 20333 0 0 0 0
250	661933977 278615 438088 438088 85060.6 86400 13395 0 0 0 0
253	662212592 270856 438088 438088 85097.9 86400 13022 0 0 0 0
264	662483448 298064 438088 438088 84967.1 86400 14330 0 0 0 0
267	662781512 295026 438088 438088 84981.7 86400 14184 0 0 0 0
281	663076538 250264 438088 438088 85196.9 86400 12032 0 0 0 0
282	663326802 250264 438088 438088 85196.9 86400 12032 0 0 0 0
283	663577066 250264 438088 438088 85196.9 86400 12032 0 0 0 0
284	663827330 250264 438088 438088 85196.9 86400 12032 0 0 0 0

