version 3
run General-0-20230518-18:36:21-53244
attr configname General
attr datetime 20230518-18:36:21
attr datetimef 20230518-183621
attr experiment General
attr inifile n10-gw1-noADR_straight.ini
attr iterationvars "$0=\"avg\""
attr iterationvarsd avg
attr iterationvarsf avg-
attr measurement "$0=\"avg\""
attr network loraSimulation.LoRaNetwork_straight
attr processid 53244
attr repetition 0
attr replication #0
attr resultdir results
attr runnumber 0
attr seedset 0
config image-path ../../../../../Downloads/omnetpp-6.0.1/samples/inet4.4/images
config network loraSimulation.LoRaNetwork_straight
config output-vector-file ../results/n10-gw1-noADR-straight-s0.ini.vec
config record-eventlog true
config **.maxTransmissionDuration 4s
config **.energyDetection -110dBm
config **.vector-recording true
config rng-class cMersenneTwister
config **.loRaGW_straight[*].numUdpApps 1
config **.loRaGW_straight[0].packetForwarder.localPort 2000
config **.loRaGW_straight[0].packetForwarder.destPort 1000
config **.loRaGW_straight[0].packetForwarder.destAddresses "\"networkServer\""
config **.loRaGW_straight[0].packetForwarder.indexNumber 0
config **.networkServer.numApps 1
config **.networkServer.**.evaluateADRinServer false
config **.networkServer.app[0].typename NetworkServerApp
config **.networkServer.app[0].destAddresses "\"loRaGW[0]\""
config **.networkServer.app[0].destPort 2000
config **.networkServer.app[0].localPort 1000
config **.networkServer.app[0].adrMethod "\"avg\""
config **.loRaNodes[0].app[0].numberOfPacketsToSend 550
config **.loRaNodes[1].app[0].numberOfPacketsToSend 570
config **.loRaNodes[2].app[0].numberOfPacketsToSend 590
config **.loRaNodes[3].app[0].numberOfPacketsToSend 610
config **.loRaNodes[4].app[0].numberOfPacketsToSend 630
config **.loRaNodes[5].app[0].numberOfPacketsToSend 650
config **.loRaNodes[6].app[0].numberOfPacketsToSend 670
config **.loRaNodes[7].app[0].numberOfPacketsToSend 690
config **.loRaNodes[8].app[0].numberOfPacketsToSend 710
config **.loRaNodes[9].app[0].numberOfPacketsToSend 730
config sim-time-limit 1d
config simtime-resolution -11
config repeat 1
config **.timeToFirstPacket exponential(10s)
config **.timeToNextPacket exponential(10s)
config **.alohaChannelModel false
config **.loRaNodes[*].**.initFromDisplayString false
config **.loRaNodes[*].**.evaluateADRinNode false
config **.loRaNodes[*].**initialLoRaBW "500 kHz"
config **.loRaNodes[*].**initialLoRaCR 4
config **.loRaNodes[*].**initialLoRaSF 7
config **.loRaNodes[*].numApps 1
config **.loRaNodes[*].app[0].typename SimpleLoRaApp
config **.LoRaGWNic.radio.iAmGateway true
config **.loRaGW_straight[*].**.initFromDisplayString false
config **.loRaNodes[*].LoRaNic.radio.energyConsumer.typename LoRaEnergyConsumer
config **.loRaNodes[*].**.energySourceModule "\"^.IdealEpEnergyStorage\""
config **.loRaNodes[*].LoRaNic.radio.energyConsumer.configFile "xmldoc(\"../energyConsumptionParameters.xml\")"
config **.sigma 3.57
config LoRaNetwork_straight.**.radio.separateTransmissionParts false
config LoRaNetwork_straight.**.radio.separateReceptionParts false
config **.ipv4Delayer.config "xmldoc(\"../cloudDelays.xml\")"
config **.radio.radioMediumModule "\"LoRaMedium\""
config **.LoRaMedium.pathLoss.typename NakagamiFading
config **.minInterferenceTime 0s
config **.displayAddresses false
config **.numberOfNodes 10
config **.numberOfGateways 1
config output-scalar-file ../results/n10-gw1-noADR-straight-s0.ini.sca
config **.loRaGW_straight[0].**.traceFile "\"straight_bonn.xml\""
config **.loRaGW_straight[0].**.is3D true
config **.loRaNodes[0].**.initialX 822.0194698360865m
config **.loRaNodes[0].**.initialY 739.4046194171533m
config **.loRaNodes[0].**.initialZ 23m
config **.loRaNodes[1].**.initialX 263.9939801048604m
config **.loRaNodes[1].**.initialY 299.80550314765424m
config **.loRaNodes[1].**.initialZ 23m
config **.loRaNodes[2].**.initialX 468.6109037408023m
config **.loRaNodes[2].**.initialY 606.6390164084733m
config **.loRaNodes[2].**.initialZ 23m
config **.loRaNodes[3].**.initialX 677.377121595724m
config **.loRaNodes[3].**.initialY 311.6158274188638m
config **.loRaNodes[3].**.initialZ 5.1m
config **.loRaNodes[4].**.initialX 734.4841017249855m
config **.loRaNodes[4].**.initialY 487.4600875368342m
config **.loRaNodes[4].**.initialZ 23m
config **.loRaNodes[5].**.initialX 714.6851075206068m
config **.loRaNodes[5].**.initialY 205.09913122281432m
config **.loRaNodes[5].**.initialZ 19m
config **.loRaNodes[6].**.initialX 403.5160410553799m
config **.loRaNodes[6].**.initialY 136.8531596083194m
config **.loRaNodes[6].**.initialZ 23m
config **.loRaNodes[7].**.initialX 220.07116886903532m
config **.loRaNodes[7].**.initialY 212.38414978329092m
config **.loRaNodes[7].**.initialZ 23m
config **.loRaNodes[8].**.initialX 108.28748674801318m
config **.loRaNodes[8].**.initialY 581.6178667871282m
config **.loRaNodes[8].**.initialZ 19m
config **.loRaNodes[9].**.initialX 511.31633024220355m
config **.loRaNodes[9].**.initialY 295.69291112665087m
config **.loRaNodes[9].**.initialZ 23m
config **.LoRaMedium.obstacleLoss.typename DielectricObstacleLoss
config *.physicalEnvironment.config "xmldoc(\"buildings_pyproj.xml\")"

par LoRaNetwork_straight.networkServer.ethg$o[0].channel typename "\"inet.node.ethernet.Eth1G\""
par LoRaNetwork_straight.networkServer.ethg$o[0].channel disabled false
attr mutable ""
par LoRaNetwork_straight.networkServer.ethg$o[0].channel delay 5e-08s
attr mutable ""
attr unit s
par LoRaNetwork_straight.networkServer.ethg$o[0].channel datarate 1e+09bps
attr mutable ""
attr unit bps
par LoRaNetwork_straight.networkServer.ethg$o[0].channel ber 0
attr mutable ""
par LoRaNetwork_straight.networkServer.ethg$o[0].channel per 0
attr mutable ""
par LoRaNetwork_straight.networkServer.ethg$o[0].channel length 10m
attr unit m
par LoRaNetwork_straight.nsRouter.ethg$o[0].channel typename "\"inet.node.ethernet.Eth1G\""
par LoRaNetwork_straight.nsRouter.ethg$o[0].channel disabled false
attr mutable ""
par LoRaNetwork_straight.nsRouter.ethg$o[0].channel delay 5e-08s
attr mutable ""
attr unit s
par LoRaNetwork_straight.nsRouter.ethg$o[0].channel datarate 1e+09bps
attr mutable ""
attr unit bps
par LoRaNetwork_straight.nsRouter.ethg$o[0].channel ber 0
attr mutable ""
par LoRaNetwork_straight.nsRouter.ethg$o[0].channel per 0
attr mutable ""
par LoRaNetwork_straight.nsRouter.ethg$o[0].channel length 10m
attr unit m
par LoRaNetwork_straight.nsRouter.pppg$o[0].channel typename "\"inet.node.ethernet.Eth1G\""
par LoRaNetwork_straight.nsRouter.pppg$o[0].channel disabled false
attr mutable ""
par LoRaNetwork_straight.nsRouter.pppg$o[0].channel delay 5e-08s
attr mutable ""
attr unit s
par LoRaNetwork_straight.nsRouter.pppg$o[0].channel datarate 1e+09bps
attr mutable ""
attr unit bps
par LoRaNetwork_straight.nsRouter.pppg$o[0].channel ber 0
attr mutable ""
par LoRaNetwork_straight.nsRouter.pppg$o[0].channel per 0
attr mutable ""
par LoRaNetwork_straight.nsRouter.pppg$o[0].channel length 10m
attr unit m
par LoRaNetwork_straight.internetCloud.pppg$o[0].channel typename "\"inet.node.ethernet.Eth1G\""
par LoRaNetwork_straight.internetCloud.pppg$o[0].channel disabled false
attr mutable ""
par LoRaNetwork_straight.internetCloud.pppg$o[0].channel delay 5e-08s
attr mutable ""
attr unit s
par LoRaNetwork_straight.internetCloud.pppg$o[0].channel datarate 1e+09bps
attr mutable ""
attr unit bps
par LoRaNetwork_straight.internetCloud.pppg$o[0].channel ber 0
attr mutable ""
par LoRaNetwork_straight.internetCloud.pppg$o[0].channel per 0
attr mutable ""
par LoRaNetwork_straight.internetCloud.pppg$o[0].channel length 10m
attr unit m
par LoRaNetwork_straight.internetCloud.pppg$o[1].channel typename "\"inet.node.ethernet.Eth1G\""
par LoRaNetwork_straight.internetCloud.pppg$o[1].channel disabled false
attr mutable ""
par LoRaNetwork_straight.internetCloud.pppg$o[1].channel delay 5e-08s
attr mutable ""
attr unit s
par LoRaNetwork_straight.internetCloud.pppg$o[1].channel datarate 1e+09bps
attr mutable ""
attr unit bps
par LoRaNetwork_straight.internetCloud.pppg$o[1].channel ber 0
attr mutable ""
par LoRaNetwork_straight.internetCloud.pppg$o[1].channel per 0
attr mutable ""
par LoRaNetwork_straight.internetCloud.pppg$o[1].channel length 10m
attr unit m
par LoRaNetwork_straight.gwRouter[0].pppg$o[0].channel typename "\"inet.node.ethernet.Eth1G\""
par LoRaNetwork_straight.gwRouter[0].pppg$o[0].channel disabled false
attr mutable ""
par LoRaNetwork_straight.gwRouter[0].pppg$o[0].channel delay 5e-08s
attr mutable ""
attr unit s
par LoRaNetwork_straight.gwRouter[0].pppg$o[0].channel datarate 1e+09bps
attr mutable ""
attr unit bps
par LoRaNetwork_straight.gwRouter[0].pppg$o[0].channel ber 0
attr mutable ""
par LoRaNetwork_straight.gwRouter[0].pppg$o[0].channel per 0
attr mutable ""
par LoRaNetwork_straight.gwRouter[0].pppg$o[0].channel length 10m
attr unit m
par LoRaNetwork_straight.gwRouter[0].ethg$o[0].channel typename "\"inet.node.ethernet.Eth1G\""
par LoRaNetwork_straight.gwRouter[0].ethg$o[0].channel disabled false
attr mutable ""
par LoRaNetwork_straight.gwRouter[0].ethg$o[0].channel delay 5e-08s
attr mutable ""
attr unit s
par LoRaNetwork_straight.gwRouter[0].ethg$o[0].channel datarate 1e+09bps
attr mutable ""
attr unit bps
par LoRaNetwork_straight.gwRouter[0].ethg$o[0].channel ber 0
attr mutable ""
par LoRaNetwork_straight.gwRouter[0].ethg$o[0].channel per 0
attr mutable ""
par LoRaNetwork_straight.gwRouter[0].ethg$o[0].channel length 10m
attr unit m
par LoRaNetwork_straight.loRaGW_straight[0].ethg$o[0].channel typename "\"inet.node.ethernet.Eth1G\""
par LoRaNetwork_straight.loRaGW_straight[0].ethg$o[0].channel disabled false
attr mutable ""
par LoRaNetwork_straight.loRaGW_straight[0].ethg$o[0].channel delay 5e-08s
attr mutable ""
attr unit s
par LoRaNetwork_straight.loRaGW_straight[0].ethg$o[0].channel datarate 1e+09bps
attr mutable ""
attr unit bps
par LoRaNetwork_straight.loRaGW_straight[0].ethg$o[0].channel ber 0
attr mutable ""
par LoRaNetwork_straight.loRaGW_straight[0].ethg$o[0].channel per 0
attr mutable ""
par LoRaNetwork_straight.loRaGW_straight[0].ethg$o[0].channel length 10m
attr unit m
par LoRaNetwork_straight.visualizer.canvasVisualizer.sceneVisualizer typename "\"inet.visualizer.canvas.scene.SceneCanvasVisualizer\""
par LoRaNetwork_straight.visualizer.canvasVisualizer.sceneVisualizer visualizationTargetModule "\"^.^.^\""
par LoRaNetwork_straight.visualizer.canvasVisualizer.sceneVisualizer visualizationSubjectModule "\"^.^.^\""
par LoRaNetwork_straight.visualizer.canvasVisualizer.sceneVisualizer tags "\"\""
par LoRaNetwork_straight.visualizer.canvasVisualizer.sceneVisualizer physicalEnvironmentModule "\"physicalEnvironment\""
par LoRaNetwork_straight.visualizer.canvasVisualizer.sceneVisualizer networkNodeVisualizerModule "\"^.networkNodeVisualizer\""
par LoRaNetwork_straight.visualizer.canvasVisualizer.sceneVisualizer axisLength "nan m"
attr mutable ""
attr unit m
par LoRaNetwork_straight.visualizer.canvasVisualizer.sceneVisualizer animationSpeed 0
par LoRaNetwork_straight.visualizer.canvasVisualizer.sceneVisualizer sceneMinX "nan m"
attr unit m
par LoRaNetwork_straight.visualizer.canvasVisualizer.sceneVisualizer sceneMinY "nan m"
attr unit m
par LoRaNetwork_straight.visualizer.canvasVisualizer.sceneVisualizer sceneMinZ "nan m"
attr unit m
par LoRaNetwork_straight.visualizer.canvasVisualizer.sceneVisualizer sceneMaxX "nan m"
attr unit m
par LoRaNetwork_straight.visualizer.canvasVisualizer.sceneVisualizer sceneMaxY "nan m"
attr unit m
par LoRaNetwork_straight.visualizer.canvasVisualizer.sceneVisualizer sceneMaxZ "nan m"
attr unit m
par LoRaNetwork_straight.visualizer.canvasVisualizer.sceneVisualizer zIndex 0
par LoRaNetwork_straight.visualizer.canvasVisualizer.sceneVisualizer viewAngle "\"x right y down z out\""
attr mutable ""
par LoRaNetwork_straight.visualizer.canvasVisualizer.sceneVisualizer viewScale "\"1 1\""
attr mutable ""
par LoRaNetwork_straight.visualizer.canvasVisualizer.sceneVisualizer viewTranslation "\"0 0\""
attr mutable ""
par LoRaNetwork_straight.visualizer.canvasVisualizer.sceneVisualizer descriptionFigure "\"\""
par LoRaNetwork_straight.visualizer.canvasVisualizer.physicalEnvironmentVisualizer typename "\"inet.visualizer.canvas.environment.PhysicalEnvironmentCanvasVisualizer\""
par LoRaNetwork_straight.visualizer.canvasVisualizer.physicalEnvironmentVisualizer visualizationTargetModule "\"^.^.^\""
par LoRaNetwork_straight.visualizer.canvasVisualizer.physicalEnvironmentVisualizer visualizationSubjectModule "\"^.^.^\""
par LoRaNetwork_straight.visualizer.canvasVisualizer.physicalEnvironmentVisualizer tags "\"\""
par LoRaNetwork_straight.visualizer.canvasVisualizer.physicalEnvironmentVisualizer physicalEnvironmentModule "\"physicalEnvironment\""
par LoRaNetwork_straight.visualizer.canvasVisualizer.physicalEnvironmentVisualizer displayObjects true
par LoRaNetwork_straight.visualizer.canvasVisualizer.physicalEnvironmentVisualizer zIndex 0
par LoRaNetwork_straight.visualizer.canvasVisualizer.networkNodeVisualizer typename "\"inet.visualizer.canvas.scene.NetworkNodeCanvasVisualizer\""
par LoRaNetwork_straight.visualizer.canvasVisualizer.networkNodeVisualizer visualizationTargetModule "\"^.^.^\""
par LoRaNetwork_straight.visualizer.canvasVisualizer.networkNodeVisualizer visualizationSubjectModule "\"^.^.^\""
par LoRaNetwork_straight.visualizer.canvasVisualizer.networkNodeVisualizer tags "\"\""
par LoRaNetwork_straight.visualizer.canvasVisualizer.networkNodeVisualizer nodeFilter "\"*\""
attr mutable ""
par LoRaNetwork_straight.visualizer.canvasVisualizer.networkNodeVisualizer annotationSpacing 4
par LoRaNetwork_straight.visualizer.canvasVisualizer.networkNodeVisualizer placementPenalty 10
par LoRaNetwork_straight.visualizer.canvasVisualizer.networkNodeVisualizer zIndex 0
par LoRaNetwork_straight.visualizer.canvasVisualizer.networkConnectionVisualizer typename "\"inet.visualizer.canvas.scene.NetworkConnectionCanvasVisualizer\""
par LoRaNetwork_straight.visualizer.canvasVisualizer.networkConnectionVisualizer visualizationTargetModule "\"^.^.^\""
par LoRaNetwork_straight.visualizer.canvasVisualizer.networkConnectionVisualizer visualizationSubjectModule "\"^.^.^\""
par LoRaNetwork_straight.visualizer.canvasVisualizer.networkConnectionVisualizer tags "\"\""
par LoRaNetwork_straight.visualizer.canvasVisualizer.networkConnectionVisualizer displayNetworkConnections true
par LoRaNetwork_straight.visualizer.canvasVisualizer.networkConnectionVisualizer nodeFilter "\"\""
attr mutable ""
par LoRaNetwork_straight.visualizer.canvasVisualizer.networkConnectionVisualizer lineColor "\"black\""
par LoRaNetwork_straight.visualizer.canvasVisualizer.networkConnectionVisualizer lineStyle "\"solid\""
par LoRaNetwork_straight.visualizer.canvasVisualizer.networkConnectionVisualizer lineWidth 1
par LoRaNetwork_straight.visualizer.canvasVisualizer.networkConnectionVisualizer zIndex 0
par LoRaNetwork_straight.visualizer.canvasVisualizer.mobilityVisualizer typename "\"inet.visualizer.canvas.mobility.MobilityCanvasVisualizer\""
par LoRaNetwork_straight.visualizer.canvasVisualizer.mobilityVisualizer visualizationTargetModule "\"^.^.^\""
par LoRaNetwork_straight.visualizer.canvasVisualizer.mobilityVisualizer visualizationSubjectModule "\"^.^.^\""
par LoRaNetwork_straight.visualizer.canvasVisualizer.mobilityVisualizer tags "\"\""
par LoRaNetwork_straight.visualizer.canvasVisualizer.mobilityVisualizer networkNodeVisualizerModule "\"^.networkNodeVisualizer\""
par LoRaNetwork_straight.visualizer.canvasVisualizer.mobilityVisualizer displayMobility true
par LoRaNetwork_straight.visualizer.canvasVisualizer.mobilityVisualizer animationSpeed 0
par LoRaNetwork_straight.visualizer.canvasVisualizer.mobilityVisualizer moduleFilter "\"**.mobility\""
attr mutable ""
par LoRaNetwork_straight.visualizer.canvasVisualizer.mobilityVisualizer displayPositions false
par LoRaNetwork_straight.visualizer.canvasVisualizer.mobilityVisualizer positionCircleRadius 4
par LoRaNetwork_straight.visualizer.canvasVisualizer.mobilityVisualizer positionCircleLineWidth 1
par LoRaNetwork_straight.visualizer.canvasVisualizer.mobilityVisualizer positionCircleLineColor "\"dark\""
attr enum light,dark
par LoRaNetwork_straight.visualizer.canvasVisualizer.mobilityVisualizer positionCircleFillColor "\"dark\""
attr enum light,dark
par LoRaNetwork_straight.visualizer.canvasVisualizer.mobilityVisualizer displayOrientations false
par LoRaNetwork_straight.visualizer.canvasVisualizer.mobilityVisualizer orientationPieRadius 32
par LoRaNetwork_straight.visualizer.canvasVisualizer.mobilityVisualizer orientationPieSize 0.2
par LoRaNetwork_straight.visualizer.canvasVisualizer.mobilityVisualizer orientationPieOpacity 0.25
par LoRaNetwork_straight.visualizer.canvasVisualizer.mobilityVisualizer orientationLineColor "\"black\""
par LoRaNetwork_straight.visualizer.canvasVisualizer.mobilityVisualizer orientationLineStyle "\"solid\""
par LoRaNetwork_straight.visualizer.canvasVisualizer.mobilityVisualizer orientationLineWidth 1
par LoRaNetwork_straight.visualizer.canvasVisualizer.mobilityVisualizer orientationFillColor "\"blue\""
par LoRaNetwork_straight.visualizer.canvasVisualizer.mobilityVisualizer displayVelocities false
par LoRaNetwork_straight.visualizer.canvasVisualizer.mobilityVisualizer velocityArrowScale 1
par LoRaNetwork_straight.visualizer.canvasVisualizer.mobilityVisualizer velocityLineColor "\"black\""
par LoRaNetwork_straight.visualizer.canvasVisualizer.mobilityVisualizer velocityLineStyle "\"solid\""
par LoRaNetwork_straight.visualizer.canvasVisualizer.mobilityVisualizer velocityLineWidth 1
par LoRaNetwork_straight.visualizer.canvasVisualizer.mobilityVisualizer displayMovementTrails false
par LoRaNetwork_straight.visualizer.canvasVisualizer.mobilityVisualizer movementTrailLineColor "\"dark\""
attr enum light,dark
par LoRaNetwork_straight.visualizer.canvasVisualizer.mobilityVisualizer movementTrailLineStyle "\"solid\""
par LoRaNetwork_straight.visualizer.canvasVisualizer.mobilityVisualizer movementTrailLineWidth 1
par LoRaNetwork_straight.visualizer.canvasVisualizer.mobilityVisualizer trailLength 100
par LoRaNetwork_straight.visualizer.canvasVisualizer.mobilityVisualizer zIndex 0
par LoRaNetwork_straight.visualizer.canvasVisualizer.statisticVisualizer typename "\"inet.visualizer.canvas.common.StatisticCanvasVisualizer\""
par LoRaNetwork_straight.visualizer.canvasVisualizer.statisticVisualizer visualizationTargetModule "\"^.^.^\""
par LoRaNetwork_straight.visualizer.canvasVisualizer.statisticVisualizer visualizationSubjectModule "\"^.^.^\""
par LoRaNetwork_straight.visualizer.canvasVisualizer.statisticVisualizer tags "\"\""
par LoRaNetwork_straight.visualizer.canvasVisualizer.statisticVisualizer networkNodeVisualizerModule "\"^.networkNodeVisualizer\""
par LoRaNetwork_straight.visualizer.canvasVisualizer.statisticVisualizer displayStatistics true
par LoRaNetwork_straight.visualizer.canvasVisualizer.statisticVisualizer signalName "\"\""
par LoRaNetwork_straight.visualizer.canvasVisualizer.statisticVisualizer statisticName "\"\""
par LoRaNetwork_straight.visualizer.canvasVisualizer.statisticVisualizer statisticUnit "\"\""
par LoRaNetwork_straight.visualizer.canvasVisualizer.statisticVisualizer statisticExpression "\"\""
par LoRaNetwork_straight.visualizer.canvasVisualizer.statisticVisualizer sourceFilter "\"**\""
attr mutable ""
par LoRaNetwork_straight.visualizer.canvasVisualizer.statisticVisualizer format "\"%n: %v %u\""
attr mutable ""
par LoRaNetwork_straight.visualizer.canvasVisualizer.statisticVisualizer unit "\"\""
par LoRaNetwork_straight.visualizer.canvasVisualizer.statisticVisualizer font "\"<default>\""
par LoRaNetwork_straight.visualizer.canvasVisualizer.statisticVisualizer textColor "\"black\""
par LoRaNetwork_straight.visualizer.canvasVisualizer.statisticVisualizer backgroundColor "\"white\""
par LoRaNetwork_straight.visualizer.canvasVisualizer.statisticVisualizer opacity 1
par LoRaNetwork_straight.visualizer.canvasVisualizer.statisticVisualizer placementHint "\"top\""
par LoRaNetwork_straight.visualizer.canvasVisualizer.statisticVisualizer placementPriority 0
par LoRaNetwork_straight.visualizer.canvasVisualizer.statisticVisualizer zIndex 10
par LoRaNetwork_straight.visualizer.canvasVisualizer.statisticVisualizer propertyName "\"\""
par LoRaNetwork_straight.visualizer.canvasVisualizer.statisticVisualizer propertyIndex "\"\""
par LoRaNetwork_straight.visualizer.canvasVisualizer.infoVisualizer typename "\"inet.visualizer.canvas.common.InfoCanvasVisualizer\""
par LoRaNetwork_straight.visualizer.canvasVisualizer.infoVisualizer visualizationTargetModule "\"^.^.^\""
par LoRaNetwork_straight.visualizer.canvasVisualizer.infoVisualizer visualizationSubjectModule "\"^.^.^\""
par LoRaNetwork_straight.visualizer.canvasVisualizer.infoVisualizer tags "\"\""
par LoRaNetwork_straight.visualizer.canvasVisualizer.infoVisualizer networkNodeVisualizerModule "\"^.networkNodeVisualizer\""
par LoRaNetwork_straight.visualizer.canvasVisualizer.infoVisualizer displayInfos true
par LoRaNetwork_straight.visualizer.canvasVisualizer.infoVisualizer modules "\"\""
attr mutable ""
par LoRaNetwork_straight.visualizer.canvasVisualizer.infoVisualizer format "\"%t\""
attr mutable ""
par LoRaNetwork_straight.visualizer.canvasVisualizer.infoVisualizer font "\"<default>\""
par LoRaNetwork_straight.visualizer.canvasVisualizer.infoVisualizer textColor "\"black\""
par LoRaNetwork_straight.visualizer.canvasVisualizer.infoVisualizer backgroundColor "\"white\""
par LoRaNetwork_straight.visualizer.canvasVisualizer.infoVisualizer opacity 1
par LoRaNetwork_straight.visualizer.canvasVisualizer.infoVisualizer placementHint "\"top\""
par LoRaNetwork_straight.visualizer.canvasVisualizer.infoVisualizer placementPriority 0
par LoRaNetwork_straight.visualizer.canvasVisualizer.infoVisualizer zIndex 10
par LoRaNetwork_straight.visualizer.canvasVisualizer.energyStorageVisualizer typename "\"inet.visualizer.canvas.power.EnergyStorageCanvasVisualizer\""
par LoRaNetwork_straight.visualizer.canvasVisualizer.energyStorageVisualizer visualizationTargetModule "\"^.^.^\""
par LoRaNetwork_straight.visualizer.canvasVisualizer.energyStorageVisualizer visualizationSubjectModule "\"^.^.^\""
par LoRaNetwork_straight.visualizer.canvasVisualizer.energyStorageVisualizer tags "\"\""
par LoRaNetwork_straight.visualizer.canvasVisualizer.energyStorageVisualizer networkNodeVisualizerModule "\"^.networkNodeVisualizer\""
par LoRaNetwork_straight.visualizer.canvasVisualizer.energyStorageVisualizer displayEnergyStorages false
par LoRaNetwork_straight.visualizer.canvasVisualizer.energyStorageVisualizer energyStorageFilter "\"**\""
par LoRaNetwork_straight.visualizer.canvasVisualizer.energyStorageVisualizer color "\"green\""
par LoRaNetwork_straight.visualizer.canvasVisualizer.energyStorageVisualizer width 8
par LoRaNetwork_straight.visualizer.canvasVisualizer.energyStorageVisualizer height 24
par LoRaNetwork_straight.visualizer.canvasVisualizer.energyStorageVisualizer spacing 2
par LoRaNetwork_straight.visualizer.canvasVisualizer.energyStorageVisualizer placementHint "\"right\""
par LoRaNetwork_straight.visualizer.canvasVisualizer.energyStorageVisualizer placementPriority 0
par LoRaNetwork_straight.visualizer.canvasVisualizer.energyStorageVisualizer zIndex 10
par LoRaNetwork_straight.visualizer.canvasVisualizer.mediumVisualizer typename "\"inet.visualizer.canvas.physicallayer.MediumCanvasVisualizer\""
par LoRaNetwork_straight.visualizer.canvasVisualizer.mediumVisualizer visualizationTargetModule "\"^.^.^\""
par LoRaNetwork_straight.visualizer.canvasVisualizer.mediumVisualizer visualizationSubjectModule "\"^.^.^\""
par LoRaNetwork_straight.visualizer.canvasVisualizer.mediumVisualizer tags "\"\""
par LoRaNetwork_straight.visualizer.canvasVisualizer.mediumVisualizer mediumModule "\"radioMedium\""
par LoRaNetwork_straight.visualizer.canvasVisualizer.mediumVisualizer networkNodeVisualizerModule "\"^.networkNodeVisualizer\""
par LoRaNetwork_straight.visualizer.canvasVisualizer.mediumVisualizer nodeFilter "\"*\""
attr mutable ""
par LoRaNetwork_straight.visualizer.canvasVisualizer.mediumVisualizer interfaceFilter "\"*\""
attr mutable ""
par LoRaNetwork_straight.visualizer.canvasVisualizer.mediumVisualizer packetFilter "(omnetpp::cValueHolder)holder: \"*\""
attr mutable ""
par LoRaNetwork_straight.visualizer.canvasVisualizer.mediumVisualizer displaySignals false
par LoRaNetwork_straight.visualizer.canvasVisualizer.mediumVisualizer signalColor "\"dark\""
attr enum light,dark
par LoRaNetwork_straight.visualizer.canvasVisualizer.mediumVisualizer signalPropagationAnimationSpeed "nan "
attr mutable ""
par LoRaNetwork_straight.visualizer.canvasVisualizer.mediumVisualizer signalPropagationAnimationTime 1s
attr unit s
par LoRaNetwork_straight.visualizer.canvasVisualizer.mediumVisualizer signalPropagationAdditionalTime 0s
attr unit s
par LoRaNetwork_straight.visualizer.canvasVisualizer.mediumVisualizer signalTransmissionAnimationSpeed "nan "
attr mutable ""
par LoRaNetwork_straight.visualizer.canvasVisualizer.mediumVisualizer signalTransmissionAnimationTime 1s
attr unit s
par LoRaNetwork_straight.visualizer.canvasVisualizer.mediumVisualizer signalAnimationSpeedChangeTimeMode "\"realTime\""
attr enum realTime,animationTime,simulationTime
par LoRaNetwork_straight.visualizer.canvasVisualizer.mediumVisualizer signalAnimationSpeedChangeTime 1s
attr unit s
par LoRaNetwork_straight.visualizer.canvasVisualizer.mediumVisualizer displaySignalDepartures false
par LoRaNetwork_straight.visualizer.canvasVisualizer.mediumVisualizer signalDepartureImage "\"misc/signal_departure.png\""
par LoRaNetwork_straight.visualizer.canvasVisualizer.mediumVisualizer signalDeparturePlacementHint "\"topCenter\""
par LoRaNetwork_straight.visualizer.canvasVisualizer.mediumVisualizer signalDeparturePlacementPriority 1
par LoRaNetwork_straight.visualizer.canvasVisualizer.mediumVisualizer displaySignalArrivals false
par LoRaNetwork_straight.visualizer.canvasVisualizer.mediumVisualizer signalArrivalImage "\"misc/signal_arrival.png\""
par LoRaNetwork_straight.visualizer.canvasVisualizer.mediumVisualizer signalArrivalPlacementHint "\"topCenter\""
par LoRaNetwork_straight.visualizer.canvasVisualizer.mediumVisualizer signalArrivalPlacementPriority -1
par LoRaNetwork_straight.visualizer.canvasVisualizer.mediumVisualizer displayCommunicationRanges false
par LoRaNetwork_straight.visualizer.canvasVisualizer.mediumVisualizer communicationRangeLineColor "\"blue\""
par LoRaNetwork_straight.visualizer.canvasVisualizer.mediumVisualizer communicationRangeLineStyle "\"solid\""
par LoRaNetwork_straight.visualizer.canvasVisualizer.mediumVisualizer communicationRangeLineWidth 1
par LoRaNetwork_straight.visualizer.canvasVisualizer.mediumVisualizer displayInterferenceRanges false
par LoRaNetwork_straight.visualizer.canvasVisualizer.mediumVisualizer interferenceRangeLineColor "\"gray\""
par LoRaNetwork_straight.visualizer.canvasVisualizer.mediumVisualizer interferenceRangeLineStyle "\"solid\""
par LoRaNetwork_straight.visualizer.canvasVisualizer.mediumVisualizer interferenceRangeLineWidth 1
par LoRaNetwork_straight.visualizer.canvasVisualizer.mediumVisualizer autoPowerAxis true
par LoRaNetwork_straight.visualizer.canvasVisualizer.mediumVisualizer signalMinPower "inf dBmW"
attr unit dBmW
par LoRaNetwork_straight.visualizer.canvasVisualizer.mediumVisualizer signalMaxPower 0dBmW
attr unit dBmW
par LoRaNetwork_straight.visualizer.canvasVisualizer.mediumVisualizer signalMinPowerDensity "inf dBmWpMHz"
attr unit dBmWpMHz
par LoRaNetwork_straight.visualizer.canvasVisualizer.mediumVisualizer signalMaxPowerDensity "-inf dBmWpMHz"
attr unit dBmWpMHz
par LoRaNetwork_straight.visualizer.canvasVisualizer.mediumVisualizer autoTimeAxis true
par LoRaNetwork_straight.visualizer.canvasVisualizer.mediumVisualizer signalMinTime 0s
attr unit s
par LoRaNetwork_straight.visualizer.canvasVisualizer.mediumVisualizer signalMaxTime 0s
attr unit s
par LoRaNetwork_straight.visualizer.canvasVisualizer.mediumVisualizer autoFrequencyAxis true
par LoRaNetwork_straight.visualizer.canvasVisualizer.mediumVisualizer signalMinFrequency "inf Hz"
attr unit Hz
par LoRaNetwork_straight.visualizer.canvasVisualizer.mediumVisualizer signalMaxFrequency "-inf Hz"
attr unit Hz
par LoRaNetwork_straight.visualizer.canvasVisualizer.mediumVisualizer displayMainPowerDensityMap false
par LoRaNetwork_straight.visualizer.canvasVisualizer.mediumVisualizer mainPowerDensityMapPixmapDensity 1
par LoRaNetwork_straight.visualizer.canvasVisualizer.mediumVisualizer mainPowerDensityMapMinX 0
par LoRaNetwork_straight.visualizer.canvasVisualizer.mediumVisualizer mainPowerDensityMapMaxX "nan "
par LoRaNetwork_straight.visualizer.canvasVisualizer.mediumVisualizer mainPowerDensityMapMinY 0
par LoRaNetwork_straight.visualizer.canvasVisualizer.mediumVisualizer mainPowerDensityMapMaxY "nan "
par LoRaNetwork_straight.visualizer.canvasVisualizer.mediumVisualizer mainPowerDensityMapZ 0
par LoRaNetwork_straight.visualizer.canvasVisualizer.mediumVisualizer mainPowerDensityMapFigureXTickCount 3
par LoRaNetwork_straight.visualizer.canvasVisualizer.mediumVisualizer mainPowerDensityMapFigureYTickCount 3
par LoRaNetwork_straight.visualizer.canvasVisualizer.mediumVisualizer displayPowerDensityMaps false
par LoRaNetwork_straight.visualizer.canvasVisualizer.mediumVisualizer powerDensityMapMode "\"auto\""
attr enum total,signal,auto
par LoRaNetwork_straight.visualizer.canvasVisualizer.mediumVisualizer powerDensityMapPixelMode "\"mean\""
attr enum sample,partition,mean
par LoRaNetwork_straight.visualizer.canvasVisualizer.mediumVisualizer powerDensityMapApproximationSize 10
par LoRaNetwork_straight.visualizer.canvasVisualizer.mediumVisualizer powerDensityMapCenterFrequency "nan Hz"
attr mutable ""
attr unit Hz
par LoRaNetwork_straight.visualizer.canvasVisualizer.mediumVisualizer powerDensityMapBandwidth 0Hz
attr mutable ""
attr unit Hz
par LoRaNetwork_straight.visualizer.canvasVisualizer.mediumVisualizer powerDensityMapFigureWidth 200
par LoRaNetwork_straight.visualizer.canvasVisualizer.mediumVisualizer powerDensityMapFigureHeight 120
par LoRaNetwork_straight.visualizer.canvasVisualizer.mediumVisualizer powerDensityMapPixmapWidth 200
par LoRaNetwork_straight.visualizer.canvasVisualizer.mediumVisualizer powerDensityMapPixmapHeight 120
par LoRaNetwork_straight.visualizer.canvasVisualizer.mediumVisualizer powerDensityMapZ 0
par LoRaNetwork_straight.visualizer.canvasVisualizer.mediumVisualizer powerDensityMapFigureXTickCount 3
par LoRaNetwork_straight.visualizer.canvasVisualizer.mediumVisualizer powerDensityMapFigureYTickCount 3
par LoRaNetwork_straight.visualizer.canvasVisualizer.mediumVisualizer displaySpectrums false
par LoRaNetwork_straight.visualizer.canvasVisualizer.mediumVisualizer spectrumMode "\"auto\""
attr enum total,signal,auto
par LoRaNetwork_straight.visualizer.canvasVisualizer.mediumVisualizer spectrumFigureWidth 200
par LoRaNetwork_straight.visualizer.canvasVisualizer.mediumVisualizer spectrumFigureHeight 120
par LoRaNetwork_straight.visualizer.canvasVisualizer.mediumVisualizer spectrumFigureXTickCount 3
par LoRaNetwork_straight.visualizer.canvasVisualizer.mediumVisualizer spectrumFigureYTickCount 5
par LoRaNetwork_straight.visualizer.canvasVisualizer.mediumVisualizer spectrumFigureInterpolationSize 5
par LoRaNetwork_straight.visualizer.canvasVisualizer.mediumVisualizer spectrumPlacementHint "\"bottomCenter\""
par LoRaNetwork_straight.visualizer.canvasVisualizer.mediumVisualizer spectrumPlacementPriority -1
par LoRaNetwork_straight.visualizer.canvasVisualizer.mediumVisualizer displaySpectrograms false
par LoRaNetwork_straight.visualizer.canvasVisualizer.mediumVisualizer spectrogramMode "\"auto\""
attr enum total,signal,auto
par LoRaNetwork_straight.visualizer.canvasVisualizer.mediumVisualizer spectrogramPixelMode "\"mean\""
attr enum sample,partition,mean
par LoRaNetwork_straight.visualizer.canvasVisualizer.mediumVisualizer spectrogramFigureWidth 200
par LoRaNetwork_straight.visualizer.canvasVisualizer.mediumVisualizer spectrogramFigureHeight 120
par LoRaNetwork_straight.visualizer.canvasVisualizer.mediumVisualizer spectrogramPixmapWidth 200
par LoRaNetwork_straight.visualizer.canvasVisualizer.mediumVisualizer spectrogramPixmapHeight 120
par LoRaNetwork_straight.visualizer.canvasVisualizer.mediumVisualizer spectrogramFigureXTickCount 3
par LoRaNetwork_straight.visualizer.canvasVisualizer.mediumVisualizer spectrogramFigureYTickCount 5
par LoRaNetwork_straight.visualizer.canvasVisualizer.mediumVisualizer spectrogramPlacementHint "\"bottomCenter\""
par LoRaNetwork_straight.visualizer.canvasVisualizer.mediumVisualizer spectrogramPlacementPriority -1
par LoRaNetwork_straight.visualizer.canvasVisualizer.mediumVisualizer zIndex 0
par LoRaNetwork_straight.visualizer.canvasVisualizer.mediumVisualizer signalShape "\"ring\""
attr enum ring,sphere
par LoRaNetwork_straight.visualizer.canvasVisualizer.mediumVisualizer signalOpacity 0.5
par LoRaNetwork_straight.visualizer.canvasVisualizer.mediumVisualizer signalRingCount 20
par LoRaNetwork_straight.visualizer.canvasVisualizer.mediumVisualizer signalRingSize 50m
attr unit m
par LoRaNetwork_straight.visualizer.canvasVisualizer.mediumVisualizer signalFadingDistance 50m
attr unit m
par LoRaNetwork_straight.visualizer.canvasVisualizer.mediumVisualizer signalFadingFactor 1.2
par LoRaNetwork_straight.visualizer.canvasVisualizer.mediumVisualizer signalWaveCount 20
par LoRaNetwork_straight.visualizer.canvasVisualizer.mediumVisualizer signalWaveLength 50m
attr unit m
par LoRaNetwork_straight.visualizer.canvasVisualizer.mediumVisualizer signalWaveWidth 10m
attr unit m
par LoRaNetwork_straight.visualizer.canvasVisualizer.mediumVisualizer signalWaveFadingAnimationSpeedFactor 1
par LoRaNetwork_straight.visualizer.canvasVisualizer.mediumVisualizer displayCommunicationHeat false
par LoRaNetwork_straight.visualizer.canvasVisualizer.obstacleLossVisualizer typename "\"inet.visualizer.canvas.physicallayer.TracingObstacleLossCanvasVisualizer\""
par LoRaNetwork_straight.visualizer.canvasVisualizer.obstacleLossVisualizer visualizationTargetModule "\"^.^.^\""
par LoRaNetwork_straight.visualizer.canvasVisualizer.obstacleLossVisualizer visualizationSubjectModule "\"^.^.^\""
par LoRaNetwork_straight.visualizer.canvasVisualizer.obstacleLossVisualizer tags "\"\""
par LoRaNetwork_straight.visualizer.canvasVisualizer.obstacleLossVisualizer displayIntersections false
par LoRaNetwork_straight.visualizer.canvasVisualizer.obstacleLossVisualizer intersectionLineColor "\"red\""
par LoRaNetwork_straight.visualizer.canvasVisualizer.obstacleLossVisualizer intersectionLineStyle "\"solid\""
par LoRaNetwork_straight.visualizer.canvasVisualizer.obstacleLossVisualizer intersectionLineWidth 1
par LoRaNetwork_straight.visualizer.canvasVisualizer.obstacleLossVisualizer displayFaceNormalVectors false
par LoRaNetwork_straight.visualizer.canvasVisualizer.obstacleLossVisualizer faceNormalLineColor "\"grey\""
par LoRaNetwork_straight.visualizer.canvasVisualizer.obstacleLossVisualizer faceNormalLineStyle "\"solid\""
par LoRaNetwork_straight.visualizer.canvasVisualizer.obstacleLossVisualizer faceNormalLineWidth 1
par LoRaNetwork_straight.visualizer.canvasVisualizer.obstacleLossVisualizer fadeOutMode "\"realTime\""
attr enum realTime,animationTime,simulationTime
par LoRaNetwork_straight.visualizer.canvasVisualizer.obstacleLossVisualizer fadeOutTime 1s
attr unit s
par LoRaNetwork_straight.visualizer.canvasVisualizer.obstacleLossVisualizer fadeOutAnimationSpeed 0
par LoRaNetwork_straight.visualizer.canvasVisualizer.obstacleLossVisualizer zIndex 0
par LoRaNetwork_straight.visualizer.canvasVisualizer.packetDropVisualizer typename "\"inet.visualizer.canvas.common.PacketDropCanvasVisualizer\""
par LoRaNetwork_straight.visualizer.canvasVisualizer.packetDropVisualizer visualizationTargetModule "\"^.^.^\""
par LoRaNetwork_straight.visualizer.canvasVisualizer.packetDropVisualizer visualizationSubjectModule "\"^.^.^\""
par LoRaNetwork_straight.visualizer.canvasVisualizer.packetDropVisualizer tags "\"\""
par LoRaNetwork_straight.visualizer.canvasVisualizer.packetDropVisualizer displayPacketDrops false
par LoRaNetwork_straight.visualizer.canvasVisualizer.packetDropVisualizer nodeFilter "\"*\""
attr mutable ""
par LoRaNetwork_straight.visualizer.canvasVisualizer.packetDropVisualizer interfaceFilter "\"*\""
attr mutable ""
par LoRaNetwork_straight.visualizer.canvasVisualizer.packetDropVisualizer packetFilter "(omnetpp::cValueHolder)holder: \"*\""
attr mutable ""
par LoRaNetwork_straight.visualizer.canvasVisualizer.packetDropVisualizer detailsFilter "\"*\""
attr mutable ""
par LoRaNetwork_straight.visualizer.canvasVisualizer.packetDropVisualizer icon "\"msg/packet_s\""
par LoRaNetwork_straight.visualizer.canvasVisualizer.packetDropVisualizer iconTintAmount 1
par LoRaNetwork_straight.visualizer.canvasVisualizer.packetDropVisualizer iconTintColor "\"dark\""
par LoRaNetwork_straight.visualizer.canvasVisualizer.packetDropVisualizer labelFormat "\"%n\""
attr mutable ""
par LoRaNetwork_straight.visualizer.canvasVisualizer.packetDropVisualizer labelFont "\"<default>\""
par LoRaNetwork_straight.visualizer.canvasVisualizer.packetDropVisualizer labelColor "\"black\""
par LoRaNetwork_straight.visualizer.canvasVisualizer.packetDropVisualizer fadeOutMode "\"realTime\""
attr enum realTime,animationTime,simulationTime
par LoRaNetwork_straight.visualizer.canvasVisualizer.packetDropVisualizer fadeOutTime 1s
attr unit s
par LoRaNetwork_straight.visualizer.canvasVisualizer.packetDropVisualizer fadeOutAnimationSpeed 0
par LoRaNetwork_straight.visualizer.canvasVisualizer.packetDropVisualizer zIndex 10
par LoRaNetwork_straight.visualizer.canvasVisualizer.packetDropVisualizer dx 32
par LoRaNetwork_straight.visualizer.canvasVisualizer.packetDropVisualizer dy 64
par LoRaNetwork_straight.visualizer.canvasVisualizer.packetFlowVisualizer typename "\"inet.visualizer.canvas.flow.PacketFlowCanvasVisualizer\""
par LoRaNetwork_straight.visualizer.canvasVisualizer.packetFlowVisualizer visualizationTargetModule "\"^.^.^\""
par LoRaNetwork_straight.visualizer.canvasVisualizer.packetFlowVisualizer visualizationSubjectModule "\"^.^.^\""
par LoRaNetwork_straight.visualizer.canvasVisualizer.packetFlowVisualizer tags "\"\""
par LoRaNetwork_straight.visualizer.canvasVisualizer.packetFlowVisualizer displayRoutes false
par LoRaNetwork_straight.visualizer.canvasVisualizer.packetFlowVisualizer startPathSignal "\"packetFlowStarted\""
par LoRaNetwork_straight.visualizer.canvasVisualizer.packetFlowVisualizer extendPathSignal "\"packetReceivedFromLower\""
par LoRaNetwork_straight.visualizer.canvasVisualizer.packetFlowVisualizer endPathSignal "\"packetFlowEnded\""
par LoRaNetwork_straight.visualizer.canvasVisualizer.packetFlowVisualizer nodeFilter "\"*\""
attr mutable ""
par LoRaNetwork_straight.visualizer.canvasVisualizer.packetFlowVisualizer packetFilter "(omnetpp::cValueHolder)holder: \"*\""
attr mutable ""
par LoRaNetwork_straight.visualizer.canvasVisualizer.packetFlowVisualizer lineColor "\"dark\""
attr enum light,dark
par LoRaNetwork_straight.visualizer.canvasVisualizer.packetFlowVisualizer lineStyle "\"dashed\""
par LoRaNetwork_straight.visualizer.canvasVisualizer.packetFlowVisualizer lineWidth 3
par LoRaNetwork_straight.visualizer.canvasVisualizer.packetFlowVisualizer lineSmooth false
par LoRaNetwork_straight.visualizer.canvasVisualizer.packetFlowVisualizer lineShift 16
par LoRaNetwork_straight.visualizer.canvasVisualizer.packetFlowVisualizer lineShiftMode "\"normal\""
par LoRaNetwork_straight.visualizer.canvasVisualizer.packetFlowVisualizer lineContactSpacing 3
par LoRaNetwork_straight.visualizer.canvasVisualizer.packetFlowVisualizer lineContactMode "\"rectangular\""
attr enum circular,rectangular
par LoRaNetwork_straight.visualizer.canvasVisualizer.packetFlowVisualizer labelFormat "\"%L %p pk (%l)\""
par LoRaNetwork_straight.visualizer.canvasVisualizer.packetFlowVisualizer labelFont "\"<default>, 8px\""
par LoRaNetwork_straight.visualizer.canvasVisualizer.packetFlowVisualizer labelColor "\"\""
par LoRaNetwork_straight.visualizer.canvasVisualizer.packetFlowVisualizer fadeOutMode "\"realTime\""
attr enum realTime,animationTime,simulationTime
par LoRaNetwork_straight.visualizer.canvasVisualizer.packetFlowVisualizer fadeOutTime 0s
attr unit s
par LoRaNetwork_straight.visualizer.canvasVisualizer.packetFlowVisualizer fadeOutAnimationSpeed 0
par LoRaNetwork_straight.visualizer.canvasVisualizer.packetFlowVisualizer zIndex 4
par LoRaNetwork_straight.visualizer.canvasVisualizer.queueVisualizer typename "\"inet.visualizer.canvas.common.QueueCanvasVisualizer\""
par LoRaNetwork_straight.visualizer.canvasVisualizer.queueVisualizer visualizationTargetModule "\"^.^.^\""
par LoRaNetwork_straight.visualizer.canvasVisualizer.queueVisualizer visualizationSubjectModule "\"^.^.^\""
par LoRaNetwork_straight.visualizer.canvasVisualizer.queueVisualizer tags "\"\""
par LoRaNetwork_straight.visualizer.canvasVisualizer.queueVisualizer networkNodeVisualizerModule "\"^.networkNodeVisualizer\""
par LoRaNetwork_straight.visualizer.canvasVisualizer.queueVisualizer displayQueues false
par LoRaNetwork_straight.visualizer.canvasVisualizer.queueVisualizer queueFilter "\"**\""
par LoRaNetwork_straight.visualizer.canvasVisualizer.queueVisualizer color "\"blue\""
par LoRaNetwork_straight.visualizer.canvasVisualizer.queueVisualizer width 8
par LoRaNetwork_straight.visualizer.canvasVisualizer.queueVisualizer height 24
par LoRaNetwork_straight.visualizer.canvasVisualizer.queueVisualizer spacing 2
par LoRaNetwork_straight.visualizer.canvasVisualizer.queueVisualizer placementHint "\"right\""
par LoRaNetwork_straight.visualizer.canvasVisualizer.queueVisualizer placementPriority 0
par LoRaNetwork_straight.visualizer.canvasVisualizer.queueVisualizer zIndex 10
par LoRaNetwork_straight.visualizer.canvasVisualizer.gateScheduleVisualizer typename "\"inet.visualizer.canvas.common.GateScheduleCanvasVisualizer\""
par LoRaNetwork_straight.visualizer.canvasVisualizer.gateScheduleVisualizer visualizationTargetModule "\"^.^.^\""
par LoRaNetwork_straight.visualizer.canvasVisualizer.gateScheduleVisualizer visualizationSubjectModule "\"^.^.^\""
par LoRaNetwork_straight.visualizer.canvasVisualizer.gateScheduleVisualizer tags "\"\""
par LoRaNetwork_straight.visualizer.canvasVisualizer.gateScheduleVisualizer networkNodeVisualizerModule "\"^.networkNodeVisualizer\""
par LoRaNetwork_straight.visualizer.canvasVisualizer.gateScheduleVisualizer displayGateSchedules false
par LoRaNetwork_straight.visualizer.canvasVisualizer.gateScheduleVisualizer labelFormat "\"%i %D\""
par LoRaNetwork_straight.visualizer.canvasVisualizer.gateScheduleVisualizer gateFilter "\"**\""
par LoRaNetwork_straight.visualizer.canvasVisualizer.gateScheduleVisualizer width 100
par LoRaNetwork_straight.visualizer.canvasVisualizer.gateScheduleVisualizer height 8
par LoRaNetwork_straight.visualizer.canvasVisualizer.gateScheduleVisualizer spacing 2
par LoRaNetwork_straight.visualizer.canvasVisualizer.gateScheduleVisualizer placementHint "\"right\""
par LoRaNetwork_straight.visualizer.canvasVisualizer.gateScheduleVisualizer placementPriority 0
par LoRaNetwork_straight.visualizer.canvasVisualizer.gateScheduleVisualizer displayDuration 0s
attr mutable ""
attr unit s
par LoRaNetwork_straight.visualizer.canvasVisualizer.gateScheduleVisualizer currentTimePosition 50
par LoRaNetwork_straight.visualizer.canvasVisualizer.gateScheduleVisualizer zIndex 10
par LoRaNetwork_straight.visualizer.canvasVisualizer.radioVisualizer typename "\"inet.visualizer.canvas.physicallayer.RadioCanvasVisualizer\""
par LoRaNetwork_straight.visualizer.canvasVisualizer.radioVisualizer visualizationTargetModule "\"^.^.^\""
par LoRaNetwork_straight.visualizer.canvasVisualizer.radioVisualizer visualizationSubjectModule "\"^.^.^\""
par LoRaNetwork_straight.visualizer.canvasVisualizer.radioVisualizer tags "\"\""
par LoRaNetwork_straight.visualizer.canvasVisualizer.radioVisualizer networkNodeVisualizerModule "\"^.networkNodeVisualizer\""
par LoRaNetwork_straight.visualizer.canvasVisualizer.radioVisualizer displayRadios false
par LoRaNetwork_straight.visualizer.canvasVisualizer.radioVisualizer displayRadioMode true
par LoRaNetwork_straight.visualizer.canvasVisualizer.radioVisualizer displayReceptionState true
par LoRaNetwork_straight.visualizer.canvasVisualizer.radioVisualizer displayTransmissionState true
par LoRaNetwork_straight.visualizer.canvasVisualizer.radioVisualizer displayAntennaLobes false
par LoRaNetwork_straight.visualizer.canvasVisualizer.radioVisualizer radioFilter "\"**\""
attr mutable ""
par LoRaNetwork_straight.visualizer.canvasVisualizer.radioVisualizer radioModeImages "\"block/process_vs block/timer_vs block/wrx_vs block/wtx_vs block/wrxtx_vs block/cogwheel_vs\""
par LoRaNetwork_straight.visualizer.canvasVisualizer.radioVisualizer receptionStateImages "\"- - misc/receiving misc/receiving\""
par LoRaNetwork_straight.visualizer.canvasVisualizer.radioVisualizer transmissionStateImages "\"- - misc/transmitting\""
par LoRaNetwork_straight.visualizer.canvasVisualizer.radioVisualizer width 16
par LoRaNetwork_straight.visualizer.canvasVisualizer.radioVisualizer height 16
par LoRaNetwork_straight.visualizer.canvasVisualizer.radioVisualizer placementHint "\"bottomRight\""
par LoRaNetwork_straight.visualizer.canvasVisualizer.radioVisualizer placementPriority 0
par LoRaNetwork_straight.visualizer.canvasVisualizer.radioVisualizer antennaLobeNormalize false
par LoRaNetwork_straight.visualizer.canvasVisualizer.radioVisualizer antennaLobeRelativeLabels false
par LoRaNetwork_straight.visualizer.canvasVisualizer.radioVisualizer antennaLobePlaneGlobal true
par LoRaNetwork_straight.visualizer.canvasVisualizer.radioVisualizer antennaLobePlane "\"view\""
attr enum view,xy,xz,yz
par LoRaNetwork_straight.visualizer.canvasVisualizer.radioVisualizer antennaLobeMode "\"logarithmic\""
attr enum logarithmic,linear
par LoRaNetwork_straight.visualizer.canvasVisualizer.radioVisualizer antennaLobeLogarithmicBase 10
par LoRaNetwork_straight.visualizer.canvasVisualizer.radioVisualizer antennaLobeLogarithmicScale 100
par LoRaNetwork_straight.visualizer.canvasVisualizer.radioVisualizer antennaLobeRadius 100
par LoRaNetwork_straight.visualizer.canvasVisualizer.radioVisualizer antennaLobeStep 10deg
attr unit deg
par LoRaNetwork_straight.visualizer.canvasVisualizer.radioVisualizer antennaLobeOpacity 0.25
par LoRaNetwork_straight.visualizer.canvasVisualizer.radioVisualizer antennaLobeLineSmooth true
par LoRaNetwork_straight.visualizer.canvasVisualizer.radioVisualizer antennaLobeLineColor "\"black\""
par LoRaNetwork_straight.visualizer.canvasVisualizer.radioVisualizer antennaLobeLineStyle "\"solid\""
par LoRaNetwork_straight.visualizer.canvasVisualizer.radioVisualizer antennaLobeLineWidth 1
par LoRaNetwork_straight.visualizer.canvasVisualizer.radioVisualizer antennaLobeFillColor "\"white\""
par LoRaNetwork_straight.visualizer.canvasVisualizer.radioVisualizer zIndex 10
par LoRaNetwork_straight.visualizer.canvasVisualizer.physicalLinkVisualizer typename "\"inet.visualizer.canvas.physicallayer.PhysicalLinkCanvasVisualizer\""
par LoRaNetwork_straight.visualizer.canvasVisualizer.physicalLinkVisualizer visualizationTargetModule "\"^.^.^\""
par LoRaNetwork_straight.visualizer.canvasVisualizer.physicalLinkVisualizer visualizationSubjectModule "\"^.^.^\""
par LoRaNetwork_straight.visualizer.canvasVisualizer.physicalLinkVisualizer tags "\"\""
par LoRaNetwork_straight.visualizer.canvasVisualizer.physicalLinkVisualizer displayLinks false
par LoRaNetwork_straight.visualizer.canvasVisualizer.physicalLinkVisualizer activityLevel "\"service\""
attr enum service,peer,protocol
par LoRaNetwork_straight.visualizer.canvasVisualizer.physicalLinkVisualizer nodeFilter "\"*\""
attr mutable ""
par LoRaNetwork_straight.visualizer.canvasVisualizer.physicalLinkVisualizer interfaceFilter "\"*\""
attr mutable ""
par LoRaNetwork_straight.visualizer.canvasVisualizer.physicalLinkVisualizer packetFilter "(omnetpp::cValueHolder)holder: \"*\""
attr mutable ""
par LoRaNetwork_straight.visualizer.canvasVisualizer.physicalLinkVisualizer lineColor "\"olive\""
par LoRaNetwork_straight.visualizer.canvasVisualizer.physicalLinkVisualizer lineStyle "\"dotted\""
par LoRaNetwork_straight.visualizer.canvasVisualizer.physicalLinkVisualizer lineWidth 3
par LoRaNetwork_straight.visualizer.canvasVisualizer.physicalLinkVisualizer lineShift 16
par LoRaNetwork_straight.visualizer.canvasVisualizer.physicalLinkVisualizer lineShiftMode "\"normal\""
par LoRaNetwork_straight.visualizer.canvasVisualizer.physicalLinkVisualizer lineContactSpacing 3
par LoRaNetwork_straight.visualizer.canvasVisualizer.physicalLinkVisualizer lineContactMode "\"rectangular\""
attr enum circular,rectangular
par LoRaNetwork_straight.visualizer.canvasVisualizer.physicalLinkVisualizer labelFormat "\"%n\""
par LoRaNetwork_straight.visualizer.canvasVisualizer.physicalLinkVisualizer labelFont "\"<default>, 8px\""
par LoRaNetwork_straight.visualizer.canvasVisualizer.physicalLinkVisualizer labelColor "\"olive\""
par LoRaNetwork_straight.visualizer.canvasVisualizer.physicalLinkVisualizer fadeOutMode "\"realTime\""
attr enum realTime,animationTime,simulationTime
par LoRaNetwork_straight.visualizer.canvasVisualizer.physicalLinkVisualizer fadeOutTime 1s
attr unit s
par LoRaNetwork_straight.visualizer.canvasVisualizer.physicalLinkVisualizer fadeOutAnimationSpeed 0
par LoRaNetwork_straight.visualizer.canvasVisualizer.physicalLinkVisualizer holdAnimationTime 0s
attr unit s
par LoRaNetwork_straight.visualizer.canvasVisualizer.physicalLinkVisualizer zIndex 1
par LoRaNetwork_straight.visualizer.canvasVisualizer.interfaceTableVisualizer typename "\"inet.visualizer.canvas.linklayer.InterfaceTableCanvasVisualizer\""
par LoRaNetwork_straight.visualizer.canvasVisualizer.interfaceTableVisualizer visualizationTargetModule "\"^.^.^\""
par LoRaNetwork_straight.visualizer.canvasVisualizer.interfaceTableVisualizer visualizationSubjectModule "\"^.^.^\""
par LoRaNetwork_straight.visualizer.canvasVisualizer.interfaceTableVisualizer tags "\"\""
par LoRaNetwork_straight.visualizer.canvasVisualizer.interfaceTableVisualizer networkNodeVisualizerModule "\"^.networkNodeVisualizer\""
par LoRaNetwork_straight.visualizer.canvasVisualizer.interfaceTableVisualizer displayInterfaceTables false
par LoRaNetwork_straight.visualizer.canvasVisualizer.interfaceTableVisualizer displayWiredInterfacesAtConnections true
par LoRaNetwork_straight.visualizer.canvasVisualizer.interfaceTableVisualizer displayBackground false
par LoRaNetwork_straight.visualizer.canvasVisualizer.interfaceTableVisualizer nodeFilter "\"*\""
attr mutable ""
par LoRaNetwork_straight.visualizer.canvasVisualizer.interfaceTableVisualizer interfaceFilter "\"not(lo*)\""
attr mutable ""
par LoRaNetwork_straight.visualizer.canvasVisualizer.interfaceTableVisualizer format "\"%N %\\\\%a%/%l\""
attr mutable ""
par LoRaNetwork_straight.visualizer.canvasVisualizer.interfaceTableVisualizer placementHint "\"top\""
par LoRaNetwork_straight.visualizer.canvasVisualizer.interfaceTableVisualizer placementPriority 0
par LoRaNetwork_straight.visualizer.canvasVisualizer.interfaceTableVisualizer font "\"<default>\""
par LoRaNetwork_straight.visualizer.canvasVisualizer.interfaceTableVisualizer textColor "\"#005030\""
par LoRaNetwork_straight.visualizer.canvasVisualizer.interfaceTableVisualizer backgroundColor "\"white\""
par LoRaNetwork_straight.visualizer.canvasVisualizer.interfaceTableVisualizer opacity 1
par LoRaNetwork_straight.visualizer.canvasVisualizer.interfaceTableVisualizer zIndex 10
par LoRaNetwork_straight.visualizer.canvasVisualizer.dataLinkVisualizer typename "\"inet.visualizer.canvas.linklayer.DataLinkCanvasVisualizer\""
par LoRaNetwork_straight.visualizer.canvasVisualizer.dataLinkVisualizer visualizationTargetModule "\"^.^.^\""
par LoRaNetwork_straight.visualizer.canvasVisualizer.dataLinkVisualizer visualizationSubjectModule "\"^.^.^\""
par LoRaNetwork_straight.visualizer.canvasVisualizer.dataLinkVisualizer tags "\"\""
par LoRaNetwork_straight.visualizer.canvasVisualizer.dataLinkVisualizer displayLinks false
par LoRaNetwork_straight.visualizer.canvasVisualizer.dataLinkVisualizer activityLevel "\"service\""
attr enum service,peer,protocol
par LoRaNetwork_straight.visualizer.canvasVisualizer.dataLinkVisualizer nodeFilter "\"*\""
attr mutable ""
par LoRaNetwork_straight.visualizer.canvasVisualizer.dataLinkVisualizer interfaceFilter "\"*\""
attr mutable ""
par LoRaNetwork_straight.visualizer.canvasVisualizer.dataLinkVisualizer packetFilter "(omnetpp::cValueHolder)holder: \"*\""
attr mutable ""
par LoRaNetwork_straight.visualizer.canvasVisualizer.dataLinkVisualizer lineColor "\"darkcyan\""
par LoRaNetwork_straight.visualizer.canvasVisualizer.dataLinkVisualizer lineStyle "\"solid\""
par LoRaNetwork_straight.visualizer.canvasVisualizer.dataLinkVisualizer lineWidth 3
par LoRaNetwork_straight.visualizer.canvasVisualizer.dataLinkVisualizer lineShift 16
par LoRaNetwork_straight.visualizer.canvasVisualizer.dataLinkVisualizer lineShiftMode "\"normal\""
par LoRaNetwork_straight.visualizer.canvasVisualizer.dataLinkVisualizer lineContactSpacing 3
par LoRaNetwork_straight.visualizer.canvasVisualizer.dataLinkVisualizer lineContactMode "\"rectangular\""
attr enum circular,rectangular
par LoRaNetwork_straight.visualizer.canvasVisualizer.dataLinkVisualizer labelFormat "\"%n\""
par LoRaNetwork_straight.visualizer.canvasVisualizer.dataLinkVisualizer labelFont "\"<default>, 8px\""
par LoRaNetwork_straight.visualizer.canvasVisualizer.dataLinkVisualizer labelColor "\"darkcyan\""
par LoRaNetwork_straight.visualizer.canvasVisualizer.dataLinkVisualizer fadeOutMode "\"realTime\""
attr enum realTime,animationTime,simulationTime
par LoRaNetwork_straight.visualizer.canvasVisualizer.dataLinkVisualizer fadeOutTime 1s
attr unit s
par LoRaNetwork_straight.visualizer.canvasVisualizer.dataLinkVisualizer fadeOutAnimationSpeed 0
par LoRaNetwork_straight.visualizer.canvasVisualizer.dataLinkVisualizer holdAnimationTime 0s
attr unit s
par LoRaNetwork_straight.visualizer.canvasVisualizer.dataLinkVisualizer zIndex 2
par LoRaNetwork_straight.visualizer.canvasVisualizer.linkBreakVisualizer typename "\"inet.visualizer.canvas.linklayer.LinkBreakCanvasVisualizer\""
par LoRaNetwork_straight.visualizer.canvasVisualizer.linkBreakVisualizer visualizationTargetModule "\"^.^.^\""
par LoRaNetwork_straight.visualizer.canvasVisualizer.linkBreakVisualizer visualizationSubjectModule "\"^.^.^\""
par LoRaNetwork_straight.visualizer.canvasVisualizer.linkBreakVisualizer tags "\"\""
par LoRaNetwork_straight.visualizer.canvasVisualizer.linkBreakVisualizer displayLinkBreaks false
par LoRaNetwork_straight.visualizer.canvasVisualizer.linkBreakVisualizer nodeFilter "\"*\""
attr mutable ""
par LoRaNetwork_straight.visualizer.canvasVisualizer.linkBreakVisualizer interfaceFilter "\"*\""
attr mutable ""
par LoRaNetwork_straight.visualizer.canvasVisualizer.linkBreakVisualizer packetFilter "(omnetpp::cValueHolder)holder: \"*\""
attr mutable ""
par LoRaNetwork_straight.visualizer.canvasVisualizer.linkBreakVisualizer icon "\"status/stop\""
par LoRaNetwork_straight.visualizer.canvasVisualizer.linkBreakVisualizer iconTintAmount 0
par LoRaNetwork_straight.visualizer.canvasVisualizer.linkBreakVisualizer iconTintColor "\"\""
par LoRaNetwork_straight.visualizer.canvasVisualizer.linkBreakVisualizer fadeOutMode "\"realTime\""
attr enum realTime,animationTime,simulationTime
par LoRaNetwork_straight.visualizer.canvasVisualizer.linkBreakVisualizer fadeOutTime 1s
attr unit s
par LoRaNetwork_straight.visualizer.canvasVisualizer.linkBreakVisualizer fadeOutAnimationSpeed 0
par LoRaNetwork_straight.visualizer.canvasVisualizer.linkBreakVisualizer zIndex 2
par LoRaNetwork_straight.visualizer.canvasVisualizer.ieee80211Visualizer typename "\"inet.visualizer.canvas.linklayer.Ieee80211CanvasVisualizer\""
par LoRaNetwork_straight.visualizer.canvasVisualizer.ieee80211Visualizer visualizationTargetModule "\"^.^.^\""
par LoRaNetwork_straight.visualizer.canvasVisualizer.ieee80211Visualizer visualizationSubjectModule "\"^.^.^\""
par LoRaNetwork_straight.visualizer.canvasVisualizer.ieee80211Visualizer tags "\"\""
par LoRaNetwork_straight.visualizer.canvasVisualizer.ieee80211Visualizer networkNodeVisualizerModule "\"^.networkNodeVisualizer\""
par LoRaNetwork_straight.visualizer.canvasVisualizer.ieee80211Visualizer displayAssociations false
par LoRaNetwork_straight.visualizer.canvasVisualizer.ieee80211Visualizer nodeFilter "\"*\""
attr mutable ""
par LoRaNetwork_straight.visualizer.canvasVisualizer.ieee80211Visualizer interfaceFilter "\"*\""
attr mutable ""
par LoRaNetwork_straight.visualizer.canvasVisualizer.ieee80211Visualizer minPower -85dBm
attr unit dBm
par LoRaNetwork_straight.visualizer.canvasVisualizer.ieee80211Visualizer maxPower -50dBm
attr unit dBm
par LoRaNetwork_straight.visualizer.canvasVisualizer.ieee80211Visualizer icons "\"misc/signal_power_0 misc/signal_power_1 misc/signal_power_2 misc/signal_power_3\""
par LoRaNetwork_straight.visualizer.canvasVisualizer.ieee80211Visualizer iconColor "\"dark\""
attr enum light,dark
par LoRaNetwork_straight.visualizer.canvasVisualizer.ieee80211Visualizer labelFont "\"<default>\""
par LoRaNetwork_straight.visualizer.canvasVisualizer.ieee80211Visualizer labelColor "\"black\""
par LoRaNetwork_straight.visualizer.canvasVisualizer.ieee80211Visualizer placementHint "\"top\""
par LoRaNetwork_straight.visualizer.canvasVisualizer.ieee80211Visualizer placementPriority 0
par LoRaNetwork_straight.visualizer.canvasVisualizer.ieee80211Visualizer zIndex 2
par LoRaNetwork_straight.visualizer.canvasVisualizer.networkRouteVisualizer typename "\"inet.visualizer.canvas.networklayer.NetworkRouteCanvasVisualizer\""
par LoRaNetwork_straight.visualizer.canvasVisualizer.networkRouteVisualizer visualizationTargetModule "\"^.^.^\""
par LoRaNetwork_straight.visualizer.canvasVisualizer.networkRouteVisualizer visualizationSubjectModule "\"^.^.^\""
par LoRaNetwork_straight.visualizer.canvasVisualizer.networkRouteVisualizer tags "\"\""
par LoRaNetwork_straight.visualizer.canvasVisualizer.networkRouteVisualizer displayRoutes false
par LoRaNetwork_straight.visualizer.canvasVisualizer.networkRouteVisualizer startPathSignal "\"packetReceivedFromUpper\""
par LoRaNetwork_straight.visualizer.canvasVisualizer.networkRouteVisualizer extendPathSignal "\"packetReceivedFromLower\""
par LoRaNetwork_straight.visualizer.canvasVisualizer.networkRouteVisualizer endPathSignal "\"packetSentToUpper\""
par LoRaNetwork_straight.visualizer.canvasVisualizer.networkRouteVisualizer nodeFilter "\"*\""
attr mutable ""
par LoRaNetwork_straight.visualizer.canvasVisualizer.networkRouteVisualizer packetFilter "(omnetpp::cValueHolder)holder: \"*\""
attr mutable ""
par LoRaNetwork_straight.visualizer.canvasVisualizer.networkRouteVisualizer lineColor "\"dark\""
attr enum light,dark
par LoRaNetwork_straight.visualizer.canvasVisualizer.networkRouteVisualizer lineStyle "\"solid\""
par LoRaNetwork_straight.visualizer.canvasVisualizer.networkRouteVisualizer lineWidth 3
par LoRaNetwork_straight.visualizer.canvasVisualizer.networkRouteVisualizer lineSmooth false
par LoRaNetwork_straight.visualizer.canvasVisualizer.networkRouteVisualizer lineShift 16
par LoRaNetwork_straight.visualizer.canvasVisualizer.networkRouteVisualizer lineShiftMode "\"normal\""
par LoRaNetwork_straight.visualizer.canvasVisualizer.networkRouteVisualizer lineContactSpacing 3
par LoRaNetwork_straight.visualizer.canvasVisualizer.networkRouteVisualizer lineContactMode "\"rectangular\""
attr enum circular,rectangular
par LoRaNetwork_straight.visualizer.canvasVisualizer.networkRouteVisualizer labelFormat "\"%n\""
par LoRaNetwork_straight.visualizer.canvasVisualizer.networkRouteVisualizer labelFont "\"<default>, 8px\""
par LoRaNetwork_straight.visualizer.canvasVisualizer.networkRouteVisualizer labelColor "\"\""
par LoRaNetwork_straight.visualizer.canvasVisualizer.networkRouteVisualizer fadeOutMode "\"realTime\""
attr enum realTime,animationTime,simulationTime
par LoRaNetwork_straight.visualizer.canvasVisualizer.networkRouteVisualizer fadeOutTime 1s
attr unit s
par LoRaNetwork_straight.visualizer.canvasVisualizer.networkRouteVisualizer fadeOutAnimationSpeed 0
par LoRaNetwork_straight.visualizer.canvasVisualizer.networkRouteVisualizer zIndex 3
par LoRaNetwork_straight.visualizer.canvasVisualizer.routingTableVisualizer typename "\"inet.visualizer.canvas.networklayer.RoutingTableCanvasVisualizer\""
par LoRaNetwork_straight.visualizer.canvasVisualizer.routingTableVisualizer visualizationTargetModule "\"^.^.^\""
par LoRaNetwork_straight.visualizer.canvasVisualizer.routingTableVisualizer visualizationSubjectModule "\"^.^.^\""
par LoRaNetwork_straight.visualizer.canvasVisualizer.routingTableVisualizer tags "\"\""
par LoRaNetwork_straight.visualizer.canvasVisualizer.routingTableVisualizer displayRoutingTables false
par LoRaNetwork_straight.visualizer.canvasVisualizer.routingTableVisualizer displayRoutesIndividually true
par LoRaNetwork_straight.visualizer.canvasVisualizer.routingTableVisualizer displayLabels true
par LoRaNetwork_straight.visualizer.canvasVisualizer.routingTableVisualizer destinationFilter "\"*\""
attr mutable ""
par LoRaNetwork_straight.visualizer.canvasVisualizer.routingTableVisualizer nodeFilter "\"*\""
attr mutable ""
par LoRaNetwork_straight.visualizer.canvasVisualizer.routingTableVisualizer lineColor "\"black\""
par LoRaNetwork_straight.visualizer.canvasVisualizer.routingTableVisualizer lineStyle "\"solid\""
par LoRaNetwork_straight.visualizer.canvasVisualizer.routingTableVisualizer lineWidth 2
par LoRaNetwork_straight.visualizer.canvasVisualizer.routingTableVisualizer lineShift 16
par LoRaNetwork_straight.visualizer.canvasVisualizer.routingTableVisualizer lineShiftMode "\"normal\""
par LoRaNetwork_straight.visualizer.canvasVisualizer.routingTableVisualizer lineContactSpacing 3
par LoRaNetwork_straight.visualizer.canvasVisualizer.routingTableVisualizer lineContactMode "\"rectangular\""
attr enum circular,rectangular
par LoRaNetwork_straight.visualizer.canvasVisualizer.routingTableVisualizer labelFormat "\"%d/%m -> %g (%n)\""
attr mutable ""
par LoRaNetwork_straight.visualizer.canvasVisualizer.routingTableVisualizer labelFont "\"<default>, 8px\""
par LoRaNetwork_straight.visualizer.canvasVisualizer.routingTableVisualizer labelColor "\"black\""
par LoRaNetwork_straight.visualizer.canvasVisualizer.routingTableVisualizer zIndex 0
par LoRaNetwork_straight.visualizer.canvasVisualizer.transportRouteVisualizer typename "\"inet.visualizer.canvas.transportlayer.TransportRouteCanvasVisualizer\""
par LoRaNetwork_straight.visualizer.canvasVisualizer.transportRouteVisualizer visualizationTargetModule "\"^.^.^\""
par LoRaNetwork_straight.visualizer.canvasVisualizer.transportRouteVisualizer visualizationSubjectModule "\"^.^.^\""
par LoRaNetwork_straight.visualizer.canvasVisualizer.transportRouteVisualizer tags "\"\""
par LoRaNetwork_straight.visualizer.canvasVisualizer.transportRouteVisualizer displayRoutes false
par LoRaNetwork_straight.visualizer.canvasVisualizer.transportRouteVisualizer startPathSignal "\"packetReceivedFromUpper\""
par LoRaNetwork_straight.visualizer.canvasVisualizer.transportRouteVisualizer extendPathSignal "\"packetReceivedFromLower\""
par LoRaNetwork_straight.visualizer.canvasVisualizer.transportRouteVisualizer endPathSignal "\"packetSentToUpper\""
par LoRaNetwork_straight.visualizer.canvasVisualizer.transportRouteVisualizer nodeFilter "\"*\""
attr mutable ""
par LoRaNetwork_straight.visualizer.canvasVisualizer.transportRouteVisualizer packetFilter "(omnetpp::cValueHolder)holder: \"*\""
attr mutable ""
par LoRaNetwork_straight.visualizer.canvasVisualizer.transportRouteVisualizer lineColor "\"dark\""
attr enum light,dark
par LoRaNetwork_straight.visualizer.canvasVisualizer.transportRouteVisualizer lineStyle "\"solid\""
par LoRaNetwork_straight.visualizer.canvasVisualizer.transportRouteVisualizer lineWidth 3
par LoRaNetwork_straight.visualizer.canvasVisualizer.transportRouteVisualizer lineSmooth false
par LoRaNetwork_straight.visualizer.canvasVisualizer.transportRouteVisualizer lineShift 16
par LoRaNetwork_straight.visualizer.canvasVisualizer.transportRouteVisualizer lineShiftMode "\"normal\""
par LoRaNetwork_straight.visualizer.canvasVisualizer.transportRouteVisualizer lineContactSpacing 3
par LoRaNetwork_straight.visualizer.canvasVisualizer.transportRouteVisualizer lineContactMode "\"rectangular\""
attr enum circular,rectangular
par LoRaNetwork_straight.visualizer.canvasVisualizer.transportRouteVisualizer labelFormat "\"%n\""
par LoRaNetwork_straight.visualizer.canvasVisualizer.transportRouteVisualizer labelFont "\"<default>, 8px\""
par LoRaNetwork_straight.visualizer.canvasVisualizer.transportRouteVisualizer labelColor "\"\""
par LoRaNetwork_straight.visualizer.canvasVisualizer.transportRouteVisualizer fadeOutMode "\"realTime\""
attr enum realTime,animationTime,simulationTime
par LoRaNetwork_straight.visualizer.canvasVisualizer.transportRouteVisualizer fadeOutTime 1s
attr unit s
par LoRaNetwork_straight.visualizer.canvasVisualizer.transportRouteVisualizer fadeOutAnimationSpeed 0
par LoRaNetwork_straight.visualizer.canvasVisualizer.transportRouteVisualizer zIndex 4
par LoRaNetwork_straight.visualizer.canvasVisualizer.transportConnectionVisualizer typename "\"inet.visualizer.canvas.transportlayer.TransportConnectionCanvasVisualizer\""
par LoRaNetwork_straight.visualizer.canvasVisualizer.transportConnectionVisualizer visualizationTargetModule "\"^.^.^\""
par LoRaNetwork_straight.visualizer.canvasVisualizer.transportConnectionVisualizer visualizationSubjectModule "\"^.^.^\""
par LoRaNetwork_straight.visualizer.canvasVisualizer.transportConnectionVisualizer tags "\"\""
par LoRaNetwork_straight.visualizer.canvasVisualizer.transportConnectionVisualizer networkNodeVisualizerModule "\"^.networkNodeVisualizer\""
par LoRaNetwork_straight.visualizer.canvasVisualizer.transportConnectionVisualizer displayTransportConnections false
par LoRaNetwork_straight.visualizer.canvasVisualizer.transportConnectionVisualizer sourceNodeFilter "\"*\""
attr mutable ""
par LoRaNetwork_straight.visualizer.canvasVisualizer.transportConnectionVisualizer sourcePortFilter "\"*\""
attr mutable ""
par LoRaNetwork_straight.visualizer.canvasVisualizer.transportConnectionVisualizer destinationNodeFilter "\"*\""
attr mutable ""
par LoRaNetwork_straight.visualizer.canvasVisualizer.transportConnectionVisualizer destinationPortFilter "\"*\""
attr mutable ""
par LoRaNetwork_straight.visualizer.canvasVisualizer.transportConnectionVisualizer icon "\"misc/marker_s\""
par LoRaNetwork_straight.visualizer.canvasVisualizer.transportConnectionVisualizer iconColor "\"dark\""
attr enum light,dark
par LoRaNetwork_straight.visualizer.canvasVisualizer.transportConnectionVisualizer labelFont "\"<default>\""
par LoRaNetwork_straight.visualizer.canvasVisualizer.transportConnectionVisualizer labelColor "\"black\""
par LoRaNetwork_straight.visualizer.canvasVisualizer.transportConnectionVisualizer placementHint "\"top\""
par LoRaNetwork_straight.visualizer.canvasVisualizer.transportConnectionVisualizer placementPriority 0
par LoRaNetwork_straight.visualizer.canvasVisualizer.transportConnectionVisualizer zIndex 4
par LoRaNetwork_straight.visualizer.canvasVisualizer.failureProtectionConfigurationVisualizer typename "\"inet.visualizer.canvas.configurator.FailureProtectionConfigurationCanvasVisualizer\""
par LoRaNetwork_straight.visualizer.canvasVisualizer.failureProtectionConfigurationVisualizer visualizationTargetModule "\"^.^.^\""
par LoRaNetwork_straight.visualizer.canvasVisualizer.failureProtectionConfigurationVisualizer visualizationSubjectModule "\"^.^.^\""
par LoRaNetwork_straight.visualizer.canvasVisualizer.failureProtectionConfigurationVisualizer tags "\"\""
par LoRaNetwork_straight.visualizer.canvasVisualizer.failureProtectionConfigurationVisualizer displayTrees false
par LoRaNetwork_straight.visualizer.canvasVisualizer.failureProtectionConfigurationVisualizer lineColor "\"dark\""
attr enum light,dark
par LoRaNetwork_straight.visualizer.canvasVisualizer.failureProtectionConfigurationVisualizer lineStyle "\"solid\""
par LoRaNetwork_straight.visualizer.canvasVisualizer.failureProtectionConfigurationVisualizer lineWidth 3
par LoRaNetwork_straight.visualizer.canvasVisualizer.failureProtectionConfigurationVisualizer lineSmooth false
par LoRaNetwork_straight.visualizer.canvasVisualizer.failureProtectionConfigurationVisualizer lineShift 16
par LoRaNetwork_straight.visualizer.canvasVisualizer.failureProtectionConfigurationVisualizer lineShiftMode "\"normal\""
par LoRaNetwork_straight.visualizer.canvasVisualizer.failureProtectionConfigurationVisualizer lineContactSpacing 3
par LoRaNetwork_straight.visualizer.canvasVisualizer.failureProtectionConfigurationVisualizer lineContactMode "\"rectangular\""
attr enum circular,rectangular
par LoRaNetwork_straight.visualizer.canvasVisualizer.failureProtectionConfigurationVisualizer failureProtectionConfiguratorModule "\"failureProtectionConfigurator\""
par LoRaNetwork_straight.visualizer.canvasVisualizer.failureProtectionConfigurationVisualizer streamFilter "\"*\""
par LoRaNetwork_straight.visualizer.canvasVisualizer.failureProtectionConfigurationVisualizer zIndex 3
par LoRaNetwork_straight.visualizer.canvasVisualizer.streamRedundancyConfigurationVisualizer typename "\"inet.visualizer.canvas.configurator.StreamRedundancyConfigurationCanvasVisualizer\""
par LoRaNetwork_straight.visualizer.canvasVisualizer.streamRedundancyConfigurationVisualizer visualizationTargetModule "\"^.^.^\""
par LoRaNetwork_straight.visualizer.canvasVisualizer.streamRedundancyConfigurationVisualizer visualizationSubjectModule "\"^.^.^\""
par LoRaNetwork_straight.visualizer.canvasVisualizer.streamRedundancyConfigurationVisualizer tags "\"\""
par LoRaNetwork_straight.visualizer.canvasVisualizer.streamRedundancyConfigurationVisualizer displayTrees false
par LoRaNetwork_straight.visualizer.canvasVisualizer.streamRedundancyConfigurationVisualizer lineColor "\"dark\""
attr enum light,dark
par LoRaNetwork_straight.visualizer.canvasVisualizer.streamRedundancyConfigurationVisualizer lineStyle "\"solid\""
par LoRaNetwork_straight.visualizer.canvasVisualizer.streamRedundancyConfigurationVisualizer lineWidth 3
par LoRaNetwork_straight.visualizer.canvasVisualizer.streamRedundancyConfigurationVisualizer lineSmooth false
par LoRaNetwork_straight.visualizer.canvasVisualizer.streamRedundancyConfigurationVisualizer lineShift 16
par LoRaNetwork_straight.visualizer.canvasVisualizer.streamRedundancyConfigurationVisualizer lineShiftMode "\"normal\""
par LoRaNetwork_straight.visualizer.canvasVisualizer.streamRedundancyConfigurationVisualizer lineContactSpacing 3
par LoRaNetwork_straight.visualizer.canvasVisualizer.streamRedundancyConfigurationVisualizer lineContactMode "\"rectangular\""
attr enum circular,rectangular
par LoRaNetwork_straight.visualizer.canvasVisualizer.streamRedundancyConfigurationVisualizer streamRedundancyConfiguratorModule "\"streamRedundancyConfigurator\""
par LoRaNetwork_straight.visualizer.canvasVisualizer.streamRedundancyConfigurationVisualizer streamFilter "\"*\""
par LoRaNetwork_straight.visualizer.canvasVisualizer.streamRedundancyConfigurationVisualizer zIndex 3
par LoRaNetwork_straight.visualizer.canvasVisualizer typename "\"inet.visualizer.canvas.integrated.IntegratedCanvasVisualizer\""
par LoRaNetwork_straight.visualizer typename "\"inet.visualizer.common.IntegratedVisualizer\""
par LoRaNetwork_straight.loRaNodes[0].interfaceTable typename "\"inet.networklayer.common.InterfaceTable\""
par LoRaNetwork_straight.loRaNodes[0].interfaceTable displayAddresses false
par LoRaNetwork_straight.loRaNodes[0].mobility typename "\"inet.mobility.static.StationaryMobility\""
par LoRaNetwork_straight.loRaNodes[0].mobility subjectModule "\"^\""
par LoRaNetwork_straight.loRaNodes[0].mobility coordinateSystemModule "\"\""
par LoRaNetwork_straight.loRaNodes[0].mobility displayStringTextFormat "\"p: %p\\nv: %v\""
attr mutable ""
par LoRaNetwork_straight.loRaNodes[0].mobility updateDisplayString true
par LoRaNetwork_straight.loRaNodes[0].mobility constraintAreaMinX "-inf m"
attr unit m
par LoRaNetwork_straight.loRaNodes[0].mobility constraintAreaMinY "-inf m"
attr unit m
par LoRaNetwork_straight.loRaNodes[0].mobility constraintAreaMinZ "-inf m"
attr unit m
par LoRaNetwork_straight.loRaNodes[0].mobility constraintAreaMaxX "inf m"
attr unit m
par LoRaNetwork_straight.loRaNodes[0].mobility constraintAreaMaxY "inf m"
attr unit m
par LoRaNetwork_straight.loRaNodes[0].mobility constraintAreaMaxZ "inf m"
attr unit m
par LoRaNetwork_straight.loRaNodes[0].mobility initialX 822.019m
attr unit m
par LoRaNetwork_straight.loRaNodes[0].mobility initialY 739.405m
attr unit m
par LoRaNetwork_straight.loRaNodes[0].mobility initialZ 23m
attr unit m
par LoRaNetwork_straight.loRaNodes[0].mobility initialLatitude "nan deg"
attr unit deg
par LoRaNetwork_straight.loRaNodes[0].mobility initialLongitude "nan deg"
attr unit deg
par LoRaNetwork_straight.loRaNodes[0].mobility initialAltitude 0m
attr unit m
par LoRaNetwork_straight.loRaNodes[0].mobility initialHeading 0deg
attr unit deg
par LoRaNetwork_straight.loRaNodes[0].mobility initialElevation 0deg
attr unit deg
par LoRaNetwork_straight.loRaNodes[0].mobility initialBank 0deg
attr unit deg
par LoRaNetwork_straight.loRaNodes[0].mobility initFromDisplayString false
par LoRaNetwork_straight.loRaNodes[0].mobility updateFromDisplayString true
par LoRaNetwork_straight.loRaNodes[0].LoRaNic.radioIn.channel typename "\"ned.IdealChannel\""
par LoRaNetwork_straight.loRaNodes[0].LoRaNic.mac.upperLayerOut.channel typename "\"ned.IdealChannel\""
par LoRaNetwork_straight.loRaNodes[0].LoRaNic.upperLayerIn.channel typename "\"ned.IdealChannel\""
par LoRaNetwork_straight.loRaNodes[0].LoRaNic.queue typename "\"inet.queueing.queue.DropTailQueue\""
par LoRaNetwork_straight.loRaNodes[0].LoRaNic.queue displayStringTextFormat "\"contains %p pk (%l) pushed %u\\npulled %o removed %r dropped %d\""
par LoRaNetwork_straight.loRaNodes[0].LoRaNic.queue packetCapacity -1
par LoRaNetwork_straight.loRaNodes[0].LoRaNic.queue dataCapacity -1b
attr unit b
par LoRaNetwork_straight.loRaNodes[0].LoRaNic.queue dropperClass "\"inet::queueing::PacketAtCollectionEndDropper\""
par LoRaNetwork_straight.loRaNodes[0].LoRaNic.queue comparatorClass "\"\""
par LoRaNetwork_straight.loRaNodes[0].LoRaNic.queue bufferModule "\"\""
scalar LoRaNetwork_straight.loRaNodes[0].LoRaNic.queue queueLength:last 0
attr autoWarmupFilter false
attr interpolationmode sample-hold
attr recordingmode last
attr source "warmup(atomic(constant0(packetPushEnded) + count(packetPushStarted) - count(packetPulled) - count(packetRemoved) - count(packetDropped)))"
attr title "queue length, last"
attr unit pk
scalar LoRaNetwork_straight.loRaNodes[0].LoRaNic.queue queueLength:max 5
attr autoWarmupFilter false
attr interpolationmode sample-hold
attr recordingmode max
attr source "warmup(atomic(constant0(packetPushEnded) + count(packetPushStarted) - count(packetPulled) - count(packetRemoved) - count(packetDropped)))"
attr title "queue length, max"
attr unit pk
scalar LoRaNetwork_straight.loRaNodes[0].LoRaNic.queue queueLength:timeavg 0.012757436362364
attr autoWarmupFilter false
attr interpolationmode sample-hold
attr recordingmode timeavg
attr source "warmup(atomic(constant0(packetPushEnded) + count(packetPushStarted) - count(packetPulled) - count(packetRemoved) - count(packetDropped)))"
attr title "queue length, timeavg"
attr unit pk
scalar LoRaNetwork_straight.loRaNodes[0].LoRaNic.queue queueBitLength:last 0
attr autoWarmupFilter false
attr interpolationmode sample-hold
attr recordingmode last
attr source "warmup(atomic(constant0(packetPushEnded) + sum(packetLength(packetPushStarted)) - sum(packetLength(packetPulled)) - sum(packetLength(packetRemoved)) - sum(packetLength(packetDropped))))"
attr title "queue bit length, last"
attr unit b
scalar LoRaNetwork_straight.loRaNodes[0].LoRaNic.queue queueBitLength:max 400
attr autoWarmupFilter false
attr interpolationmode sample-hold
attr recordingmode max
attr source "warmup(atomic(constant0(packetPushEnded) + sum(packetLength(packetPushStarted)) - sum(packetLength(packetPulled)) - sum(packetLength(packetRemoved)) - sum(packetLength(packetDropped))))"
attr title "queue bit length, max"
attr unit b
scalar LoRaNetwork_straight.loRaNodes[0].LoRaNic.queue queueBitLength:timeavg 1.0205949089891
attr autoWarmupFilter false
attr interpolationmode sample-hold
attr recordingmode timeavg
attr source "warmup(atomic(constant0(packetPushEnded) + sum(packetLength(packetPushStarted)) - sum(packetLength(packetPulled)) - sum(packetLength(packetRemoved)) - sum(packetLength(packetDropped))))"
attr title "queue bit length, timeavg"
attr unit b
statistic LoRaNetwork_straight.loRaNodes[0].LoRaNic.queue queueingTime:histogram
field count 550
field mean 2.0038926700451
field stddev 3.5770797184849
field min 0
field max 24.42095060618
field sum 1102.1409685248
field sqrsum 9233.3013306886
attr interpolationmode none
attr recordingmode histogram
attr source queueingTime(packetPulled)
attr title "queueing times"
attr unit s
bin	-inf	0
bin	0	322
bin	0.5	14
bin	1	24
bin	1.5	19
bin	2	17
bin	2.5	18
bin	3	21
bin	3.5	31
bin	4	6
bin	4.5	6
bin	5	9
bin	5.5	4
bin	6	7
bin	6.5	5
bin	7	0
bin	7.5	3
bin	8	8
bin	8.5	4
bin	9	2
bin	9.5	3
bin	10	3
bin	10.5	4
bin	11	0
bin	11.5	4
bin	12	3
bin	12.5	1
bin	13	1
bin	13.5	2
bin	14	2
bin	14.5	0
bin	15	0
bin	15.5	1
bin	16	1
bin	16.5	1
bin	17	1
bin	17.5	0
bin	18	0
bin	18.5	0
bin	19	0
bin	19.5	0
bin	20	0
bin	20.5	0
bin	21	1
bin	21.5	0
bin	22	0
bin	22.5	0
bin	23	0
bin	23.5	0
bin	24	2
bin	24.5	0
bin	25	0
bin	25.5	0
bin	26	0
bin	26.5	0
bin	27	0
bin	27.5	0
bin	28	0
bin	28.5	0
bin	29	0
bin	29.5	0
bin	30	0
bin	30.5	0
bin	31	0
scalar LoRaNetwork_straight.loRaNodes[0].LoRaNic.queue outgoingPackets:count 550
attr recordingmode count
attr source packetPulled
attr title "outgoing packets, count"
attr unit pk
scalar LoRaNetwork_straight.loRaNodes[0].LoRaNic.queue outgoingPacketLengths:sum 44000
attr interpolationmode none
attr recordingmode sum
attr source packetLength(packetPulled)
attr title "outgoing packet lengths, sum"
attr unit b
statistic LoRaNetwork_straight.loRaNodes[0].LoRaNic.queue outgoingPacketLengths:histogram
field count 550
field mean 80
field stddev 0
field min 80
field max 80
field sum 44000
field sqrsum 3520000
attr interpolationmode none
attr recordingmode histogram
attr source packetLength(packetPulled)
attr title "outgoing packet lengths"
attr unit b
bin	-inf	0
bin	79	0
bin	80	550
bin	81	0
statistic LoRaNetwork_straight.loRaNodes[0].LoRaNic.queue flowQueueingTime:histogram
field count 0
field mean nan
field stddev nan
field min nan
field max nan
field sum 0
field sqrsum 0
attr interpolationmode none
attr recordingmode histogram
attr source queueingTime(demuxFlow(packetPulled))
attr title "flow queueing times"
attr unit s
bin	-inf	0
bin	0	0
bin	1	0
scalar LoRaNetwork_straight.loRaNodes[0].LoRaNic.queue incomingPackets:count 550
attr recordingmode count
attr source packetPushStarted
attr title "incoming packets, count"
attr unit pk
scalar LoRaNetwork_straight.loRaNodes[0].LoRaNic.queue incomingPacketLengths:sum 44000
attr interpolationmode none
attr recordingmode sum
attr source packetLength(packetPushStarted)
attr title "incoming packet lengths, sum"
attr unit b
statistic LoRaNetwork_straight.loRaNodes[0].LoRaNic.queue incomingPacketLengths:histogram
field count 550
field mean 80
field stddev 0
field min 80
field max 80
field sum 44000
field sqrsum 3520000
attr interpolationmode none
attr recordingmode histogram
attr source packetLength(packetPushStarted)
attr title "incoming packet lengths"
attr unit b
bin	-inf	0
bin	79	0
bin	80	550
[...]
attr interpolationmode none
attr recordingmode sum
attr title "pause units received, sum"
scalar LoRaNetwork_straight.nsRouter.eth[0].mac txPausePkUnits:count 0
attr interpolationmode none
attr recordingmode count
attr title "pause units sent, count"
scalar LoRaNetwork_straight.nsRouter.eth[0].mac txPausePkUnits:sum 0
attr interpolationmode none
attr recordingmode sum
attr title "pause units sent, sum"
scalar LoRaNetwork_straight.nsRouter.eth[0].mac rxPkOk:count 63
attr interpolationmode none
attr recordingmode count
attr source rxPkOk
attr title "packets received OK, count"
scalar LoRaNetwork_straight.nsRouter.eth[0].mac rxPkOk:sum(packetBytes) 4032
attr interpolationmode none
attr recordingmode sum(packetBytes)
attr source rxPkOk
attr title "packets received OK, sum(packetBytes)"
scalar LoRaNetwork_straight.nsRouter.eth[0].mac txPk:count 6396
attr interpolationmode none
attr recordingmode count
attr source packetSentToLower
attr title "packets transmitted, count"
scalar LoRaNetwork_straight.nsRouter.eth[0].mac txPk:sum(packetBytes) 466341
attr interpolationmode none
attr recordingmode sum(packetBytes)
attr source packetSentToLower
attr title "packets transmitted, sum(packetBytes)"
scalar LoRaNetwork_straight.nsRouter.eth[0].mac packetReceivedFromUpper:count 6396
attr interpolationmode none
attr recordingmode count
attr source packetReceivedFromUpper
attr title "packet bytes from higher layer, count"
scalar LoRaNetwork_straight.nsRouter.eth[0].mac packetReceivedFromUpper:sum(packetBytes) 465207
attr interpolationmode none
attr recordingmode sum(packetBytes)
attr source packetReceivedFromUpper
attr title "packet bytes from higher layer, sum(packetBytes)"
scalar LoRaNetwork_straight.nsRouter.eth[0].mac passedUpPk:count 63
attr interpolationmode none
attr recordingmode count
attr source packetSentToUpper
attr title "packets passed to higher layer, count"
scalar LoRaNetwork_straight.nsRouter.eth[0].mac passedUpPk:sum(packetBytes) 4032
attr interpolationmode none
attr recordingmode sum(packetBytes)
attr source packetSentToUpper
attr title "packets passed to higher layer, sum(packetBytes)"
scalar LoRaNetwork_straight.nsRouter.eth[0].mac packetDropIncorrectlyReceived:count 0
attr interpolationmode none
attr recordingmode count
attr source packetDropReasonIsIncorrectlyReceived(packetDropped)
attr title "packet drop: incorrectly received, count"
scalar LoRaNetwork_straight.nsRouter.eth[0].mac packetDropIncorrectlyReceived:sum(packetBytes) 0
attr interpolationmode none
attr recordingmode sum(packetBytes)
attr source packetDropReasonIsIncorrectlyReceived(packetDropped)
attr title "packet drop: incorrectly received, sum(packetBytes)"
scalar LoRaNetwork_straight.nsRouter.eth[0].mac packetDropInterfaceDown:count 0
attr interpolationmode none
attr recordingmode count
attr source packetDropReasonIsInterfaceDown(packetDropped)
attr title "packet drop: interface down, count"
scalar LoRaNetwork_straight.nsRouter.eth[0].mac packetDropInterfaceDown:sum(packetBytes) 0
attr interpolationmode none
attr recordingmode sum(packetBytes)
attr source packetDropReasonIsInterfaceDown(packetDropped)
attr title "packet drop: interface down, sum(packetBytes)"
scalar LoRaNetwork_straight.nsRouter.eth[0].mac packetDropNotAddressedToUs:count 0
attr interpolationmode none
attr recordingmode count
attr source packetDropReasonIsNotAddressedToUs(packetDropped)
attr title "packet drop: not addressed to us, count"
scalar LoRaNetwork_straight.nsRouter.eth[0].mac packetDropNotAddressedToUs:sum(packetBytes) 0
attr interpolationmode none
attr recordingmode sum(packetBytes)
attr source packetDropReasonIsNotAddressedToUs(packetDropped)
attr title "packet drop: not addressed to us, sum(packetBytes)"
par LoRaNetwork_straight.nsRouter.eth[0] typename "\"inet.linklayer.ethernet.EthernetInterface\""
par LoRaNetwork_straight.nsRouter.eth[0] displayStringTextFormat "\"%a (%i)\\n%m\""
par LoRaNetwork_straight.nsRouter.eth[0] recordPcap false
par LoRaNetwork_straight.nsRouter.eth[0] numPcapRecorders 0
par LoRaNetwork_straight.nsRouter.eth[0] interfaceTableModule "\"LoRaNetwork_straight.nsRouter.interfaceTable\""
par LoRaNetwork_straight.nsRouter.eth[0] protocol "\"ethernetmac\""
par LoRaNetwork_straight.nsRouter.eth[0] address "\"0A-AA-00-00-00-0F\""
attr mutable ""
par LoRaNetwork_straight.nsRouter.eth[0] duplexMode true
par LoRaNetwork_straight.nsRouter.eth[0] csmacdSupport false
par LoRaNetwork_straight.nsRouter.eth[0] bitrate 0bps
attr unit bps
par LoRaNetwork_straight.nsRouter.eth[0] fcsMode "\"declared\""
attr enum declared,computed
scalar LoRaNetwork_straight.nsRouter.eth[0] packetDropInterfaceDown:count 0
attr interpolationmode none
attr recordingmode count
attr source packetDropReasonIsInterfaceDown(packetDropped)
attr title "packet drops: interface down, count"
scalar LoRaNetwork_straight.nsRouter.eth[0] packetDropInterfaceDown:sum(packetBytes) 0
attr interpolationmode none
attr recordingmode sum(packetBytes)
attr source packetDropReasonIsInterfaceDown(packetDropped)
attr title "packet drops: interface down, sum(packetBytes)"
scalar LoRaNetwork_straight.nsRouter.eth[0] packetDropNoCarrier:count 0
attr interpolationmode none
attr recordingmode count
attr source packetDropReasonIsNoCarrier(packetDropped)
attr title "packet drops: no carrier, count"
scalar LoRaNetwork_straight.nsRouter.eth[0] packetDropNoCarrier:sum(packetBytes) 0
attr interpolationmode none
attr recordingmode sum(packetBytes)
attr source packetDropReasonIsNoCarrier(packetDropped)
attr title "packet drops: no carrier, sum(packetBytes)"
par LoRaNetwork_straight.nsRouter.ipv4.transportIn.channel typename "\"ned.IdealChannel\""
par LoRaNetwork_straight.nsRouter.ipv4.up.out[0].channel typename "\"ned.IdealChannel\""
par LoRaNetwork_straight.nsRouter.ipv4.lp.out[2].channel typename "\"ned.IdealChannel\""
par LoRaNetwork_straight.nsRouter.ipv4.ifIn.channel typename "\"ned.IdealChannel\""
par LoRaNetwork_straight.nsRouter.ipv4.configurator typename "\"inet.networklayer.configurator.ipv4.Ipv4NodeConfigurator\""
par LoRaNetwork_straight.nsRouter.ipv4.configurator interfaceTableModule "\"LoRaNetwork_straight.nsRouter.interfaceTable\""
par LoRaNetwork_straight.nsRouter.ipv4.configurator routingTableModule "\"LoRaNetwork_straight.nsRouter.ipv4.routingTable\""
par LoRaNetwork_straight.nsRouter.ipv4.configurator networkConfiguratorModule "\"configurator\""
par LoRaNetwork_straight.nsRouter.ipv4.configurator configureRoutingTable true
par LoRaNetwork_straight.nsRouter.ipv4.routingTable typename "\"inet.networklayer.ipv4.Ipv4RoutingTable\""
par LoRaNetwork_straight.nsRouter.ipv4.routingTable interfaceTableModule "\"LoRaNetwork_straight.nsRouter.interfaceTable\""
par LoRaNetwork_straight.nsRouter.ipv4.routingTable routerId "\"auto\""
par LoRaNetwork_straight.nsRouter.ipv4.routingTable netmaskRoutes "\"*\""
par LoRaNetwork_straight.nsRouter.ipv4.routingTable forwarding true
par LoRaNetwork_straight.nsRouter.ipv4.routingTable multicastForwarding false
par LoRaNetwork_straight.nsRouter.ipv4.routingTable useAdminDist false
par LoRaNetwork_straight.nsRouter.ipv4.routingTable routingFile "\"\""
par LoRaNetwork_straight.nsRouter.ipv4.natTable typename "\"inet.networklayer.ipv4.Ipv4NatTable\""
par LoRaNetwork_straight.nsRouter.ipv4.natTable networkProtocolModule "\"^.ip\""
par LoRaNetwork_straight.nsRouter.ipv4.natTable config "<config/> at content:1"
par LoRaNetwork_straight.nsRouter.ipv4.up typename "\"inet.common.MessageDispatcher\""
par LoRaNetwork_straight.nsRouter.ipv4.up displayStringTextFormat "\"processed %p pk (%l)\""
par LoRaNetwork_straight.nsRouter.ipv4.up forwardServiceRegistration true
par LoRaNetwork_straight.nsRouter.ipv4.up forwardProtocolRegistration true
par LoRaNetwork_straight.nsRouter.ipv4.igmp typename "\"inet.networklayer.ipv4.Igmpv2\""
par LoRaNetwork_straight.nsRouter.ipv4.igmp interfaceTableModule "\"LoRaNetwork_straight.nsRouter.interfaceTable\""
par LoRaNetwork_straight.nsRouter.ipv4.igmp routingTableModule "\"LoRaNetwork_straight.nsRouter.ipv4.routingTable\""
par LoRaNetwork_straight.nsRouter.ipv4.igmp crcMode "\"declared\""
attr enum declared,computed
par LoRaNetwork_straight.nsRouter.ipv4.igmp enabled true
par LoRaNetwork_straight.nsRouter.ipv4.igmp robustnessVariable 2
par LoRaNetwork_straight.nsRouter.ipv4.igmp queryInterval 125s
attr unit s
par LoRaNetwork_straight.nsRouter.ipv4.igmp queryResponseInterval 10s
attr unit s
par LoRaNetwork_straight.nsRouter.ipv4.igmp groupMembershipInterval 260s
attr unit s
par LoRaNetwork_straight.nsRouter.ipv4.igmp otherQuerierPresentInterval 255s
attr unit s
par LoRaNetwork_straight.nsRouter.ipv4.igmp startupQueryInterval 31.25s
attr unit s
par LoRaNetwork_straight.nsRouter.ipv4.igmp startupQueryCount 2
par LoRaNetwork_straight.nsRouter.ipv4.igmp lastMemberQueryInterval 1s
attr unit s
par LoRaNetwork_straight.nsRouter.ipv4.igmp lastMemberQueryCount 2
par LoRaNetwork_straight.nsRouter.ipv4.igmp unsolicitedReportInterval 10s
attr unit s
par LoRaNetwork_straight.nsRouter.ipv4.icmp typename "\"inet.networklayer.ipv4.Icmp\""
par LoRaNetwork_straight.nsRouter.ipv4.icmp interfaceTableModule "\"LoRaNetwork_straight.nsRouter.interfaceTable\""
par LoRaNetwork_straight.nsRouter.ipv4.icmp routingTableModule "\"LoRaNetwork_straight.nsRouter.ipv4.routingTable\""
par LoRaNetwork_straight.nsRouter.ipv4.icmp crcMode "\"declared\""
attr enum declared,computed
attr mutable ""
par LoRaNetwork_straight.nsRouter.ipv4.icmp quoteLength 8B
attr mutable ""
attr unit B
par LoRaNetwork_straight.nsRouter.ipv4.mp typename "\"inet.common.MessageDispatcher\""
par LoRaNetwork_straight.nsRouter.ipv4.mp displayStringTextFormat "\"processed %p pk (%l)\""
par LoRaNetwork_straight.nsRouter.ipv4.mp forwardServiceRegistration true
par LoRaNetwork_straight.nsRouter.ipv4.mp forwardProtocolRegistration true
par LoRaNetwork_straight.nsRouter.ipv4.ip typename "\"inet.networklayer.ipv4.Ipv4\""
par LoRaNetwork_straight.nsRouter.ipv4.ip interfaceTableModule "\"LoRaNetwork_straight.nsRouter.interfaceTable\""
par LoRaNetwork_straight.nsRouter.ipv4.ip routingTableModule "\"LoRaNetwork_straight.nsRouter.ipv4.routingTable\""
par LoRaNetwork_straight.nsRouter.ipv4.ip arpModule "\"LoRaNetwork_straight.nsRouter.ipv4.arp\""
par LoRaNetwork_straight.nsRouter.ipv4.ip icmpModule "\"LoRaNetwork_straight.nsRouter.ipv4.icmp\""
par LoRaNetwork_straight.nsRouter.ipv4.ip crcMode "\"declared\""
attr enum declared,computed
par LoRaNetwork_straight.nsRouter.ipv4.ip timeToLive 32
par LoRaNetwork_straight.nsRouter.ipv4.ip multicastTimeToLive 32
par LoRaNetwork_straight.nsRouter.ipv4.ip fragmentTimeout 60s
attr unit s
par LoRaNetwork_straight.nsRouter.ipv4.ip limitedBroadcast false
par LoRaNetwork_straight.nsRouter.ipv4.ip directBroadcastInterfaces "\"\""
scalar LoRaNetwork_straight.nsRouter.ipv4.ip packetDropAddressResolutionFailed:count 0
attr interpolationmode none
attr recordingmode count
attr source packetDropReasonIsAddressResolutionFailed(packetDropped)
attr title "packet drop: address resolution failed, count"
scalar LoRaNetwork_straight.nsRouter.ipv4.ip packetDropAddressResolutionFailed:sum(packetBytes) 0
attr interpolationmode none
attr recordingmode sum(packetBytes)
attr source packetDropReasonIsAddressResolutionFailed(packetDropped)
attr title "packet drop: address resolution failed, sum(packetBytes)"
scalar LoRaNetwork_straight.nsRouter.ipv4.ip packetDropHopLimitReached:count 0
attr interpolationmode none
attr recordingmode count
attr source packetDropReasonIsHopLimitReached(packetDropped)
attr title "packet drop: hop limit reached, count"
scalar LoRaNetwork_straight.nsRouter.ipv4.ip packetDropHopLimitReached:sum(packetBytes) 0
attr interpolationmode none
attr recordingmode sum(packetBytes)
attr source packetDropReasonIsHopLimitReached(packetDropped)
attr title "packet drop: hop limit reached, sum(packetBytes)"
scalar LoRaNetwork_straight.nsRouter.ipv4.ip packetDropForwardingDisabled:count 0
attr interpolationmode none
attr recordingmode count
attr source packetDropReasonIsForwardingDisabled(packetDropped)
attr title "packet drop: forwarding disabled, count"
scalar LoRaNetwork_straight.nsRouter.ipv4.ip packetDropForwardingDisabled:sum(packetBytes) 0
attr interpolationmode none
attr recordingmode sum(packetBytes)
attr source packetDropReasonIsForwardingDisabled(packetDropped)
attr title "packet drop: forwarding disabled, sum(packetBytes)"
scalar LoRaNetwork_straight.nsRouter.ipv4.ip packetDropNoInterfaceFound:count 0
attr interpolationmode none
attr recordingmode count
attr source packetDropReasonIsNoInterfaceFound(packetDropped)
attr title "packet drop: no interface found, count"
scalar LoRaNetwork_straight.nsRouter.ipv4.ip packetDropNoInterfaceFound:sum(packetBytes) 0
attr interpolationmode none
attr recordingmode sum(packetBytes)
attr source packetDropReasonIsNoInterfaceFound(packetDropped)
attr title "packet drop: no interface found, sum(packetBytes)"
scalar LoRaNetwork_straight.nsRouter.ipv4.ip packetDropNoRouteFound:count 0
attr interpolationmode none
attr recordingmode count
attr source packetDropReasonIsNoRouteFound(packetDropped)
attr title "packet drop: no route found, count"
scalar LoRaNetwork_straight.nsRouter.ipv4.ip packetDropNoRouteFound:sum(packetBytes) 0
attr interpolationmode none
attr recordingmode sum(packetBytes)
attr source packetDropReasonIsNoRouteFound(packetDropped)
attr title "packet drop: no route found, sum(packetBytes)"
scalar LoRaNetwork_straight.nsRouter.ipv4.ip packetDropUndefined:count 0
attr interpolationmode none
attr recordingmode count
attr source packetDropReasonIsUndefined(packetDropped)
attr title "packet drop: undefined, count"
scalar LoRaNetwork_straight.nsRouter.ipv4.ip packetDropUndefined:sum(packetBytes) 0
attr interpolationmode none
attr recordingmode sum(packetBytes)
attr source packetDropReasonIsUndefined(packetDropped)
attr title "packet drop: undefined, sum(packetBytes)"
par LoRaNetwork_straight.nsRouter.ipv4.arp typename "\"inet.networklayer.arp.ipv4.Arp\""
par LoRaNetwork_straight.nsRouter.ipv4.arp interfaceTableModule "\"LoRaNetwork_straight.nsRouter.interfaceTable\""
par LoRaNetwork_straight.nsRouter.ipv4.arp routingTableModule "\"LoRaNetwork_straight.nsRouter.ipv4.routingTable\""
par LoRaNetwork_straight.nsRouter.ipv4.arp retryTimeout 1s
attr unit s
par LoRaNetwork_straight.nsRouter.ipv4.arp retryCount 3
par LoRaNetwork_straight.nsRouter.ipv4.arp cacheTimeout 120s
attr unit s
par LoRaNetwork_straight.nsRouter.ipv4.arp proxyArpInterfaces "\"*\""
scalar LoRaNetwork_straight.nsRouter.ipv4.arp arpResolutionFailed:count 0
attr recordingmode count
attr title "ARP failed resolutions, count"
scalar LoRaNetwork_straight.nsRouter.ipv4.arp arpResolutionCompleted:count 63
attr recordingmode count
attr title "ARP completed resolutions, count"
scalar LoRaNetwork_straight.nsRouter.ipv4.arp arpResolutionInitiated:count 63
attr recordingmode count
attr title "ARP initiated resolutions, count"
scalar LoRaNetwork_straight.nsRouter.ipv4.arp arpReplySent:count 0
attr recordingmode count
attr source arpReplySent
attr title "ARP replies sent, count"
scalar LoRaNetwork_straight.nsRouter.ipv4.arp arpReplySent:sum(packetBytes) 0
attr recordingmode sum(packetBytes)
attr source arpReplySent
attr title "ARP replies sent, sum(packetBytes)"
scalar LoRaNetwork_straight.nsRouter.ipv4.arp arpRequestSent:count 63
attr recordingmode count
attr source arpRequestSent
attr title "ARP request sent, count"
scalar LoRaNetwork_straight.nsRouter.ipv4.arp arpRequestSent:sum(packetBytes) 1764
attr recordingmode sum(packetBytes)
attr source arpRequestSent
attr title "ARP request sent, sum(packetBytes)"
par LoRaNetwork_straight.nsRouter.ipv4.lp typename "\"inet.common.MessageDispatcher\""
par LoRaNetwork_straight.nsRouter.ipv4.lp displayStringTextFormat "\"processed %p pk (%l)\""
par LoRaNetwork_straight.nsRouter.ipv4.lp forwardServiceRegistration true
par LoRaNetwork_straight.nsRouter.ipv4.lp forwardProtocolRegistration true
par LoRaNetwork_straight.nsRouter.ipv4 typename "\"inet.networklayer.ipv4.Ipv4NetworkLayer\""
par LoRaNetwork_straight.nsRouter.ipv4 forwarding true
par LoRaNetwork_straight.nsRouter.ipv4 multicastForwarding false
par LoRaNetwork_straight.nsRouter.ipv4 interfaceTableModule "\"LoRaNetwork_straight.nsRouter.interfaceTable\""
par LoRaNetwork_straight.nsRouter.ipv4 displayStringTextFormat "\"%i\""
par LoRaNetwork_straight.nsRouter.nl typename "\"inet.common.MessageDispatcher\""
par LoRaNetwork_straight.nsRouter.nl displayStringTextFormat "\"processed %p pk (%l)\""
par LoRaNetwork_straight.nsRouter.nl forwardServiceRegistration true
par LoRaNetwork_straight.nsRouter.nl forwardProtocolRegistration true
par LoRaNetwork_straight.nsRouter.tn typename "\"inet.common.MessageDispatcher\""
par LoRaNetwork_straight.nsRouter.tn displayStringTextFormat "\"processed %p pk (%l)\""
par LoRaNetwork_straight.nsRouter.tn forwardServiceRegistration true
par LoRaNetwork_straight.nsRouter.tn forwardProtocolRegistration true
par LoRaNetwork_straight.nsRouter.at typename "\"inet.common.MessageDispatcher\""
par LoRaNetwork_straight.nsRouter.at displayStringTextFormat "\"processed %p pk (%l)\""
par LoRaNetwork_straight.nsRouter.at forwardServiceRegistration true
par LoRaNetwork_straight.nsRouter.at forwardProtocolRegistration true
par LoRaNetwork_straight.nsRouter typename "\"inet.node.inet.Router\""
par LoRaNetwork_straight.nsRouter hasStatus false
par LoRaNetwork_straight.nsRouter osgModel "\"\""
par LoRaNetwork_straight.nsRouter osgModelColor "\"\""
par LoRaNetwork_straight.nsRouter canvasImage "\"\""
par LoRaNetwork_straight.nsRouter canvasImageColor "\"\""
par LoRaNetwork_straight.nsRouter recordPcap false
par LoRaNetwork_straight.nsRouter numPcapRecorders 0
par LoRaNetwork_straight.nsRouter numLoInterfaces 1
par LoRaNetwork_straight.nsRouter numWlanInterfaces 0
par LoRaNetwork_straight.nsRouter numEthInterfaces 0
par LoRaNetwork_straight.nsRouter numPppInterfaces 0
par LoRaNetwork_straight.nsRouter numTunInterfaces 0
par LoRaNetwork_straight.nsRouter numVirtInterfaces 0
par LoRaNetwork_straight.nsRouter fcsMode "\"declared\""
attr enum declared,computed
par LoRaNetwork_straight.nsRouter hasIpv4 true
par LoRaNetwork_straight.nsRouter hasIpv6 false
par LoRaNetwork_straight.nsRouter hasGn false
par LoRaNetwork_straight.nsRouter forwarding true
par LoRaNetwork_straight.nsRouter multicastForwarding false
par LoRaNetwork_straight.nsRouter hasUdp false
par LoRaNetwork_straight.nsRouter hasTcp false
par LoRaNetwork_straight.nsRouter hasSctp false
par LoRaNetwork_straight.nsRouter numApps 0
par LoRaNetwork_straight.nsRouter hasEigrp false
par LoRaNetwork_straight.nsRouter hasOspf false
par LoRaNetwork_straight.nsRouter hasRip false
par LoRaNetwork_straight.nsRouter hasBgp false
par LoRaNetwork_straight.nsRouter hasPim false
par LoRaNetwork_straight.nsRouter hasDhcp false
par LoRaNetwork_straight.physicalEnvironment typename "\"inet.environment.common.PhysicalEnvironment\""
par LoRaNetwork_straight.physicalEnvironment coordinateSystemModule "\"\""
par LoRaNetwork_straight.physicalEnvironment temperature 293K
attr unit K
par LoRaNetwork_straight.physicalEnvironment spaceMinX "nan m"
attr unit m
par LoRaNetwork_straight.physicalEnvironment spaceMinY "nan m"
attr unit m
par LoRaNetwork_straight.physicalEnvironment spaceMinZ "nan m"
attr unit m
par LoRaNetwork_straight.physicalEnvironment spaceMaxX "nan m"
attr unit m
par LoRaNetwork_straight.physicalEnvironment spaceMaxY "nan m"
attr unit m
par LoRaNetwork_straight.physicalEnvironment spaceMaxZ "nan m"
attr unit m
par LoRaNetwork_straight.physicalEnvironment config "<environment>...</environment> at /Users/hiro/LoRaPos/simulation/flora_simulation/loraSimulation/exmples//buildings_pyproj.xml:1"
par LoRaNetwork_straight typename "\"loraSimulation.LoRaNetwork_straight\""
par LoRaNetwork_straight numberOfNodes 10
par LoRaNetwork_straight numberOfGateways 1
par LoRaNetwork_straight networkSizeX 500
par LoRaNetwork_straight networkSizeY 500

