                                                                
version 3
run General-0-20230519-12:58:40-59336
attr configname General
attr datetime 20230519-12:58:40
attr datetimef 20230519-125840
attr experiment General
attr inifile n10-gw1-noADR_moving.ini
attr iterationvars "$0=\"avg\""
attr iterationvarsd avg
attr iterationvarsf avg-
attr measurement "$0=\"avg\""
attr network loraSimulation.LoRaNetwork_moving
attr processid 59336
attr repetition 0
attr replication #0
attr resultdir results
attr runnumber 0
attr seedset 0
config image-path ../../../../../Downloads/omnetpp-6.0.1/samples/inet4.4/images
config network loraSimulation.LoRaNetwork_moving
config output-vector-file ../results/n10-gw1-noADR-moving-s0.ini.vec
config record-eventlog true
config **.maxTransmissionDuration 4s
config **.energyDetection -110dBm
config **.vector-recording true
config rng-class cMersenneTwister
config **.loRaGW_moving[*].numUdpApps 1
config **.loRaGW_moving[0].packetForwarder.localPort 2000
config **.loRaGW_moving[0].packetForwarder.destPort 1000
config **.loRaGW_moving[0].packetForwarder.destAddresses "\"networkServer\""
config **.loRaGW_moving[0].packetForwarder.indexNumber 0
config **.networkServer.numApps 1
config **.networkServer.**.evaluateADRinServer false
config **.networkServer.app[0].typename NetworkServerApp
config **.networkServer.app[0].destAddresses "\"loRaGW[0]\""
config **.networkServer.app[0].destPort 2000
config **.networkServer.app[0].localPort 1000
config **.networkServer.app[0].adrMethod "\"avg\""
config **.loRaNodes[0].app[0].numberOfPacketsToSend 5500
config **.loRaNodes[1].app[0].numberOfPacketsToSend 5700
config **.loRaNodes[2].app[0].numberOfPacketsToSend 5900
config **.loRaNodes[3].app[0].numberOfPacketsToSend 6100
config **.loRaNodes[4].app[0].numberOfPacketsToSend 6300
config **.loRaNodes[5].app[0].numberOfPacketsToSend 6500
config **.loRaNodes[6].app[0].numberOfPacketsToSend 6700
config **.loRaNodes[7].app[0].numberOfPacketsToSend 6900
config **.loRaNodes[8].app[0].numberOfPacketsToSend 7100
config **.loRaNodes[9].app[0].numberOfPacketsToSend 7300
config sim-time-limit 10d
config simtime-resolution -11
config repeat 1
config **.timeToFirstPacket exponential(10s)
config **.timeToNextPacket exponential(10s)
config **.alohaChannelModel false
config **.loRaNodes[*].**.initFromDisplayString false
config **.loRaNodes[*].**.evaluateADRinNode false
config **.loRaNodes[*].**initialLoRaBW "500 kHz"
config **.loRaNodes[*].**initialLoRaCR 4
config **.loRaNodes[*].**initialLoRaSF 7
config **.loRaNodes[*].numApps 1
config **.loRaNodes[*].app[0].typename SimpleLoRaApp
config **.LoRaGWNic.radio.iAmGateway true
config **.loRaGW_moving[*].**.initFromDisplayString false
config **.loRaNodes[*].LoRaNic.radio.energyConsumer.typename LoRaEnergyConsumer
config **.loRaNodes[*].**.energySourceModule "\"^.IdealEpEnergyStorage\""
config **.loRaNodes[*].LoRaNic.radio.energyConsumer.configFile "xmldoc(\"../energyConsumptionParameters.xml\")"
config **.sigma 3.57
config LoRaNetwork_moving.**.radio.separateTransmissionParts false
config LoRaNetwork_moving.**.radio.separateReceptionParts false
config **.ipv4Delayer.config "xmldoc(\"../cloudDelays.xml\")"
config **.radio.radioMediumModule "\"LoRaMedium\""
config **.LoRaMedium.pathLoss.typename NakagamiFading
config **.minInterferenceTime 0s
config **.displayAddresses false
config **.numberOfNodes 10
config **.numberOfGateways 1
config output-scalar-file ../results/n10-gw1-noADR-moving-s0.ini.sca
config **.loRaGW_moving[0].**.cx 452m
config **.loRaGW_moving[0].**.cy 426m
config **.loRaGW_moving[0].**.cz 100m
config **.loRaGW_moving[0].**.r 200m
config **.loRaGW_moving[0].**.speed 0.1mps
config **.loRaGW_moving[0].**.startAngle 0deg
config **.loRaNodes[0].**.initialX 822.0194698360865m
config **.loRaNodes[0].**.initialY 739.4046194171533m
config **.loRaNodes[0].**.initialZ 23m
config **.loRaNodes[1].**.initialX 263.9939801048604m
config **.loRaNodes[1].**.initialY 299.80550314765424m
config **.loRaNodes[1].**.initialZ 23m
config **.loRaNodes[2].**.initialX 468.6109037408023m
config **.loRaNodes[2].**.initialY 606.6390164084733m
config **.loRaNodes[2].**.initialZ 23m
config **.loRaNodes[3].**.initialX 677.377121595724m
config **.loRaNodes[3].**.initialY 311.6158274188638m
config **.loRaNodes[3].**.initialZ 5.1m
config **.loRaNodes[4].**.initialX 734.4841017249855m
config **.loRaNodes[4].**.initialY 487.4600875368342m
config **.loRaNodes[4].**.initialZ 23m
config **.loRaNodes[5].**.initialX 714.6851075206068m
config **.loRaNodes[5].**.initialY 205.09913122281432m
config **.loRaNodes[5].**.initialZ 19m
config **.loRaNodes[6].**.initialX 403.5160410553799m
config **.loRaNodes[6].**.initialY 136.8531596083194m
config **.loRaNodes[6].**.initialZ 23m
config **.loRaNodes[7].**.initialX 220.07116886903532m
config **.loRaNodes[7].**.initialY 212.38414978329092m
config **.loRaNodes[7].**.initialZ 23m
config **.loRaNodes[8].**.initialX 108.28748674801318m
config **.loRaNodes[8].**.initialY 581.6178667871282m
config **.loRaNodes[8].**.initialZ 19m
config **.loRaNodes[9].**.initialX 511.31633024220355m
config **.loRaNodes[9].**.initialY 295.69291112665087m
config **.loRaNodes[9].**.initialZ 23m
config **.LoRaMedium.obstacleLoss.typename DielectricObstacleLoss
config *.physicalEnvironment.config "xmldoc(\"buildings_pyproj.xml\")"

vector 0 LoRaNetwork_moving.loRaGW_moving[0].udp passedUpPk:vector(count) ETV
attr interpolationmode none
attr recordingmode vector(count)
attr source packetSentToUpper
attr title "packets passed up, count"
vector 1 LoRaNetwork_moving.loRaGW_moving[0].udp droppedPkWrongPort:vector(count) ETV
attr interpolationmode none
attr recordingmode vector(count)
attr source packetDropReasonIsNoPortFound(packetDropped)
attr title "packets dropped (wrong port), count"
vector 2 LoRaNetwork_moving.loRaGW_moving[0].udp droppedPkBadChecksum:vector(count) ETV
attr interpolationmode none
attr recordingmode vector(count)
attr source packetDropReasonIsIncorrectlyReceived(packetDropped)
attr title "packets dropped (checksum error), count"
vector 3 LoRaNetwork_moving.networkServer.udp passedUpPk:vector(count) ETV
attr interpolationmode none
attr recordingmode vector(count)
attr source packetSentToUpper
attr title "packets passed up, count"
vector 4 LoRaNetwork_moving.networkServer.udp droppedPkWrongPort:vector(count) ETV
attr interpolationmode none
attr recordingmode vector(count)
attr source packetDropReasonIsNoPortFound(packetDropped)
attr title "packets dropped (wrong port), count"
vector 5 LoRaNetwork_moving.networkServer.udp droppedPkBadChecksum:vector(count) ETV
attr interpolationmode none
attr recordingmode vector(count)
attr source packetDropReasonIsIncorrectlyReceived(packetDropped)
attr title "packets dropped (checksum error), count"
vector 6 LoRaNetwork_moving.internetCloud.ppp[0].ppp transmissionState:vector ETV
attr interpolationmode sample-hold
attr recordingmode vector
attr source transmissionStateChanged
attr title "tx state"
vector 7 LoRaNetwork_moving.internetCloud.ppp[1].ppp transmissionState:vector ETV
attr interpolationmode sample-hold
attr recordingmode vector
attr source transmissionStateChanged
attr title "tx state"
vector 8 LoRaNetwork_moving.gwRouter[0].ppp[0].ppp transmissionState:vector ETV
attr interpolationmode sample-hold
attr recordingmode vector
attr source transmissionStateChanged
attr title "tx state"
vector 9 LoRaNetwork_moving.nsRouter.ppp[0].ppp transmissionState:vector ETV
attr interpolationmode sample-hold
attr recordingmode vector
attr source transmissionStateChanged
attr title "tx state"
vector 10 LoRaNetwork_moving.loRaNodes[0].LoRaNic.radio.IdealEpEnergyStorage powerConsumption:vector ETV
attr interpolationmode sample-hold
attr recordingmode vector
attr source powerConsumptionChanged
attr title "Power consumption"
vector 11 LoRaNetwork_moving.loRaNodes[1].LoRaNic.radio.IdealEpEnergyStorage powerConsumption:vector ETV
attr interpolationmode sample-hold
attr recordingmode vector
attr source powerConsumptionChanged
attr title "Power consumption"
vector 12 LoRaNetwork_moving.loRaNodes[2].LoRaNic.radio.IdealEpEnergyStorage powerConsumption:vector ETV
attr interpolationmode sample-hold
attr recordingmode vector
attr source powerConsumptionChanged
attr title "Power consumption"
vector 13 LoRaNetwork_moving.loRaNodes[3].LoRaNic.radio.IdealEpEnergyStorage powerConsumption:vector ETV
attr interpolationmode sample-hold
attr recordingmode vector
attr source powerConsumptionChanged
attr title "Power consumption"
vector 14 LoRaNetwork_moving.loRaNodes[4].LoRaNic.radio.IdealEpEnergyStorage powerConsumption:vector ETV
attr interpolationmode sample-hold
attr recordingmode vector
attr source powerConsumptionChanged
attr title "Power consumption"
vector 15 LoRaNetwork_moving.loRaNodes[5].LoRaNic.radio.IdealEpEnergyStorage powerConsumption:vector ETV
attr interpolationmode sample-hold
attr recordingmode vector
attr source powerConsumptionChanged
attr title "Power consumption"
vector 16 LoRaNetwork_moving.loRaNodes[6].LoRaNic.radio.IdealEpEnergyStorage powerConsumption:vector ETV
attr interpolationmode sample-hold
attr recordingmode vector
attr source powerConsumptionChanged
attr title "Power consumption"
vector 17 LoRaNetwork_moving.loRaNodes[7].LoRaNic.radio.IdealEpEnergyStorage powerConsumption:vector ETV
attr interpolationmode sample-hold
attr recordingmode vector
attr source powerConsumptionChanged
attr title "Power consumption"
vector 18 LoRaNetwork_moving.loRaNodes[8].LoRaNic.radio.IdealEpEnergyStorage powerConsumption:vector ETV
attr interpolationmode sample-hold
attr recordingmode vector
attr source powerConsumptionChanged
attr title "Power consumption"
vector 19 LoRaNetwork_moving.loRaNodes[9].LoRaNic.radio.IdealEpEnergyStorage powerConsumption:vector ETV
attr interpolationmode sample-hold
attr recordingmode vector
attr source powerConsumptionChanged
attr title "Power consumption"
vector 20 LoRaNetwork_moving.loRaNodes[0].LoRaNic.radio radioMode:vector ETV
attr interpolationmode sample-hold
attr recordingmode vector
attr source radioModeChanged
attr title "Radio mode"
vector 21 LoRaNetwork_moving.loRaNodes[0].LoRaNic.radio.energyConsumer powerConsumption:vector ETV
attr interpolationmode sample-hold
attr recordingmode vector
attr source powerConsumptionChanged
attr title "Power consumption"
vector 22 LoRaNetwork_moving.loRaNodes[1].LoRaNic.radio radioMode:vector ETV
attr interpolationmode sample-hold
attr recordingmode vector
attr source radioModeChanged
attr title "Radio mode"
vector 23 LoRaNetwork_moving.loRaNodes[1].LoRaNic.radio.energyConsumer powerConsumption:vector ETV
attr interpolationmode sample-hold
attr recordingmode vector
attr source powerConsumptionChanged
attr title "Power consumption"
vector 24 LoRaNetwork_moving.loRaNodes[2].LoRaNic.radio radioMode:vector ETV
attr interpolationmode sample-hold
attr recordingmode vector
attr source radioModeChanged
attr title "Radio mode"
vector 25 LoRaNetwork_moving.loRaNodes[2].LoRaNic.radio.energyConsumer powerConsumption:vector ETV
attr interpolationmode sample-hold
attr recordingmode vector
attr source powerConsumptionChanged
attr title "Power consumption"
vector 26 LoRaNetwork_moving.loRaNodes[3].LoRaNic.radio radioMode:vector ETV
attr interpolationmode sample-hold
attr recordingmode vector
attr source radioModeChanged
attr title "Radio mode"
vector 27 LoRaNetwork_moving.loRaNodes[3].LoRaNic.radio.energyConsumer powerConsumption:vector ETV
attr interpolationmode sample-hold
attr recordingmode vector
attr source powerConsumptionChanged
attr title "Power consumption"
vector 28 LoRaNetwork_moving.loRaNodes[4].LoRaNic.radio radioMode:vector ETV
attr interpolationmode sample-hold
attr recordingmode vector
attr source radioModeChanged
attr title "Radio mode"
vector 29 LoRaNetwork_moving.loRaNodes[4].LoRaNic.radio.energyConsumer powerConsumption:vector ETV
attr interpolationmode sample-hold
attr recordingmode vector
attr source powerConsumptionChanged
attr title "Power consumption"
vector 30 LoRaNetwork_moving.loRaNodes[5].LoRaNic.radio radioMode:vector ETV
attr interpolationmode sample-hold
attr recordingmode vector
attr source radioModeChanged
attr title "Radio mode"
vector 31 LoRaNetwork_moving.loRaNodes[5].LoRaNic.radio.energyConsumer powerConsumption:vector ETV
attr interpolationmode sample-hold
attr recordingmode vector
attr source powerConsumptionChanged
attr title "Power consumption"
vector 32 LoRaNetwork_moving.loRaNodes[6].LoRaNic.radio radioMode:vector ETV
attr interpolationmode sample-hold
attr recordingmode vector
attr source radioModeChanged
attr title "Radio mode"
vector 33 LoRaNetwork_moving.loRaNodes[6].LoRaNic.radio.energyConsumer powerConsumption:vector ETV
attr interpolationmode sample-hold
attr recordingmode vector
attr source powerConsumptionChanged
attr title "Power consumption"
vector 34 LoRaNetwork_moving.loRaNodes[7].LoRaNic.radio radioMode:vector ETV
attr interpolationmode sample-hold
attr recordingmode vector
attr source radioModeChanged
attr title "Radio mode"
vector 35 LoRaNetwork_moving.loRaNodes[7].LoRaNic.radio.energyConsumer powerConsumption:vector ETV
attr interpolationmode sample-hold
attr recordingmode vector
attr source powerConsumptionChanged
attr title "Power consumption"
vector 36 LoRaNetwork_moving.loRaNodes[8].LoRaNic.radio radioMode:vector ETV
attr interpolationmode sample-hold
attr recordingmode vector
attr source radioModeChanged
attr title "Radio mode"
vector 37 LoRaNetwork_moving.loRaNodes[8].LoRaNic.radio.energyConsumer powerConsumption:vector ETV
attr interpolationmode sample-hold
attr recordingmode vector
attr source powerConsumptionChanged
attr title "Power consumption"
vector 38 LoRaNetwork_moving.loRaNodes[9].LoRaNic.radio radioMode:vector ETV
attr interpolationmode sample-hold
attr recordingmode vector
attr source radioModeChanged
attr title "Radio mode"
vector 39 LoRaNetwork_moving.loRaNodes[9].LoRaNic.radio.energyConsumer powerConsumption:vector ETV
attr interpolationmode sample-hold
attr recordingmode vector
attr source powerConsumptionChanged
attr title "Power consumption"
vector 40 LoRaNetwork_moving.loRaGW_moving[0].LoRaGWNic.radio radioMode:vector ETV
attr interpolationmode sample-hold
attr recordingmode vector
attr source radioModeChanged
attr title "Radio mode"
vector 41 LoRaNetwork_moving.loRaGW_moving[0].LoRaGWNic.radio receptionState:vector ETV
attr interpolationmode sample-hold
attr recordingmode vector
attr source receptionStateChanged
attr title "Radio reception state"
vector 42 LoRaNetwork_moving.loRaGW_moving[0].LoRaGWNic.radio transmissionState:vector ETV
attr interpolationmode sample-hold
attr recordingmode vector
attr source transmissionStateChanged
attr title "Radio transmission state"
vector 43 LoRaNetwork_moving.loRaNodes[8].app[0] "SF Vector" ETV
vector 44 LoRaNetwork_moving.loRaNodes[8].app[0] "TP Vector" ETV
vector 45 LoRaNetwork_moving.loRaNodes[8].LoRaNic.queue incomingPacketLengths:vector ETV
attr interpolationmode none
attr recordingmode vector
attr source packetLength(packetPushStarted)
attr title "incoming packet lengths"
attr unit b
vector 46 LoRaNetwork_moving.loRaNodes[8].LoRaNic.queue incomingDataRate:vector ETV
attr interpolationmode linear
attr recordingmode vector
attr source throughput(packetPushStarted)
attr title "incoming datarate"
attr unit bps
vector 47 LoRaNetwork_moving.loRaNodes[8].LoRaNic.queue queueingTime:vector ETV
attr interpolationmode none
attr recordingmode vector
attr source queueingTime(packetPulled)
attr title "queueing times"
attr unit s
vector 48 LoRaNetwork_moving.loRaNodes[8].LoRaNic.queue outgoingPacketLengths:vector ETV
attr interpolationmode none
attr recordingmode vector
attr source packetLength(packetPulled)
attr title "outgoing packet lengths"
attr unit b
vector 49 LoRaNetwork_moving.loRaNodes[8].LoRaNic.queue outgoingDataRate:vector ETV
attr interpolationmode linear
attr recordingmode vector
attr source throughput(packetPulled)
attr title "outgoing datarate"
attr unit bps
vector 50 LoRaNetwork_moving.loRaNodes[8].LoRaNic.radio.IdealEpEnergyStorage residualEnergyCapacity:vector ETV
attr interpolationmode linear
attr recordingmode vector
attr source residualEnergyCapacityChanged
attr title "Residual energy capacity"
vector 51 LoRaNetwork_moving.loRaNodes[8].LoRaNic.radio transmissionState:vector ETV
attr interpolationmode sample-hold
attr recordingmode vector
attr source transmissionStateChanged
attr title "Radio transmission state"
vector 52 LoRaNetwork_moving.loRaNodes[8].LoRaNic.queue queueLength:vector ETV
attr autoWarmupFilter false
attr interpolationmode sample-hold
attr recordingmode vector
attr source "warmup(atomic(constant0(packetPushEnded) + count(packetPushStarted) - count(packetPulled) - count(packetRemoved) - count(packetDropped)))"
attr title "queue length"
attr unit pk
vector 53 LoRaNetwork_moving.loRaNodes[8].LoRaNic.queue queueBitLength:vector ETV
attr autoWarmupFilter false
attr interpolationmode sample-hold
attr recordingmode vector
attr source "warmup(atomic(constant0(packetPushEnded) + sum(packetLength(packetPushStarted)) - sum(packetLength(packetPulled)) - sum(packetLength(packetRemoved)) - sum(packetLength(packetDropped))))"
attr title "queue bit length"
attr unit b
vector 54 LoRaNetwork_moving.loRaGW_moving[0].udp packetSent:vector(packetBytes) ETV
attr interpolationmode none
attr recordingmode vector(packetBytes)
attr source packetSent
attr title "packets sent, packetBytes"
vector 55 LoRaNetwork_moving.loRaGW_moving[0].ipv4.arp arpRequestSent:vector(packetBytes) ETV
attr recordingmode vector(packetBytes)
attr source arpRequestSent
attr title "ARP request sent, packetBytes"
vector 56 LoRaNetwork_moving.loRaGW_moving[0].ethernet encapPk:vector(packetBytes) ETV
attr interpolationmode none
attr recordingmode vector(packetBytes)
attr source encapPk
attr title "packets encapsulated, packetBytes"
vector 57 LoRaNetwork_moving.loRaGW_moving[0].eth[0].queue incomingPacketLengths:vector ETV
attr interpolationmode none
attr recordingmode vector
attr source packetLength(packetPushStarted)
attr title "incoming packet lengths"
attr unit b
vector 58 LoRaNetwork_moving.loRaGW_moving[0].eth[0].queue incomingDataRate:vector ETV
attr interpolationmode linear
attr recordingmode vector
attr source throughput(packetPushStarted)
attr title "incoming datarate"
attr unit bps
vector 59 LoRaNetwork_moving.loRaGW_moving[0].eth[0].queue queueingTime:vector ETV
attr interpolationmode none
attr recordingmode vector
attr source queueingTime(packetPulled)
attr title "queueing times"
attr unit s
vector 60 LoRaNetwork_moving.loRaGW_moving[0].eth[0].queue outgoingPacketLengths:vector ETV
attr interpolationmode none
attr recordingmode vector
attr source packetLength(packetPulled)
attr title "outgoing packet lengths"
attr unit b
vector 61 LoRaNetwork_moving.loRaGW_moving[0].eth[0].queue outgoingDataRate:vector ETV
attr interpolationmode linear
attr recordingmode vector
attr source throughput(packetPulled)
attr title "outgoing datarate"
attr unit bps
vector 62 LoRaNetwork_moving.loRaGW_moving[0].eth[0].mac packetReceivedFromUpper:vector(packetBytes) ETV
attr interpolationmode none
attr recordingmode vector(packetBytes)
attr source packetReceivedFromUpper
attr title "packet bytes from higher layer, packetBytes"
vector 63 LoRaNetwork_moving.loRaGW_moving[0].eth[0].queue queueLength:vector ETV
attr autoWarmupFilter false
attr interpolationmode sample-hold
attr recordingmode vector
attr source "warmup(atomic(constant0(packetPushEnded) + count(packetPushStarted) - count(packetPulled) - count(packetRemoved) - count(packetDropped)))"
attr title "queue length"
attr unit pk
vector 64 LoRaNetwork_moving.loRaGW_moving[0].eth[0].queue queueBitLength:vector ETV
attr autoWarmupFilter false
attr interpolationmode sample-hold
attr recordingmode vector
attr source "warmup(atomic(constant0(packetPushEnded) + sum(packetLength(packetPushStarted)) - sum(packetLength(packetPulled)) - sum(packetLength(packetRemoved)) - sum(packetLength(packetDropped))))"
attr title "queue bit length"
attr unit b
vector 65 LoRaNetwork_moving.loRaGW_moving[0].eth[0].mac txPk:vector(packetBytes) ETV
attr interpolationmode none
attr recordingmode vector(packetBytes)
attr source packetSentToLower
attr title "packets transmitted, packetBytes"
vector 66 LoRaNetwork_moving.gwRouter[0].eth[0].mac rxPkOk:vector(packetBytes) ETV
attr interpolationmode none
attr recordingmode vector(packetBytes)
attr source rxPkOk
attr title "packets received OK, packetBytes"
vector 67 LoRaNetwork_moving.gwRouter[0].eth[0].mac passedUpPk:vector(packetBytes) ETV
attr interpolationmode none
attr recordingmode vector(packetBytes)
attr source packetSentToUpper
attr title "packets passed to higher layer, packetBytes"
vector 68 LoRaNetwork_moving.gwRouter[0].ethernet decapPk:vector(packetBytes) ETV
attr interpolationmode none
attr recordingmode vector(packetBytes)
attr source decapPk
attr title "packets decapsulated, packetBytes"
vector 69 LoRaNetwork_moving.gwRouter[0].ipv4.arp arpReplySent:vector(packetBytes) ETV
attr recordingmode vector(packetBytes)
attr source arpReplySent
attr title "ARP replies sent, packetBytes"
vector 70 LoRaNetwork_moving.gwRouter[0].ethernet encapPk:vector(packetBytes) ETV
attr interpolationmode none
attr recordingmode vector(packetBytes)
attr source encapPk
attr title "packets encapsulated, packetBytes"
vector 71 LoRaNetwork_moving.gwRouter[0].eth[0].queue incomingPacketLengths:vector ETV
attr interpolationmode none
attr recordingmode vector
attr source packetLength(packetPushStarted)
attr title "incoming packet lengths"
attr unit b
vector 72 LoRaNetwork_moving.gwRouter[0].eth[0].queue incomingDataRate:vector ETV
attr interpolationmode linear
attr recordingmode vector
attr source throughput(packetPushStarted)
attr title "incoming datarate"
attr unit bps
vector 73 LoRaNetwork_moving.gwRouter[0].eth[0].queue queueingTime:vector ETV
attr interpolationmode none
attr recordingmode vector
attr source queueingTime(packetPulled)
attr title "queueing times"
attr unit s
vector 74 LoRaNetwork_moving.gwRouter[0].eth[0].queue outgoingPacketLengths:vector ETV
attr interpolationmode none
attr recordingmode vector
attr source packetLength(packetPulled)
attr title "outgoing packet lengths"
attr unit b
vector 75 LoRaNetwork_moving.gwRouter[0].eth[0].queue outgoingDataRate:vector ETV
attr interpolationmode linear
attr recordingmode vector
attr source throughput(packetPulled)
attr title "outgoing datarate"
attr unit bps
vector 76 LoRaNetwork_moving.gwRouter[0].eth[0].mac packetReceivedFromUpper:vector(packetBytes) ETV
attr interpolationmode none
attr recordingmode vector(packetBytes)
attr source packetReceivedFromUpper
attr title "packet bytes from higher layer, packetBytes"
vector 77 LoRaNetwork_moving.gwRouter[0].eth[0].queue queueLength:vector ETV
attr autoWarmupFilter false
attr interpolationmode sample-hold
attr recordingmode vector
attr source "warmup(atomic(constant0(packetPushEnded) + count(packetPushStarted) - count(packetPulled) - count(packetRemoved) - count(packetDropped)))"
attr title "queue length"
attr unit pk
vector 78 LoRaNetwork_moving.gwRouter[0].eth[0].queue queueBitLength:vector ETV
attr autoWarmupFilter false
attr interpolationmode sample-hold
attr recordingmode vector
attr source "warmup(atomic(constant0(packetPushEnded) + sum(packetLength(packetPushStarted)) - sum(packetLength(packetPulled)) - sum(packetLength(packetRemoved)) - sum(packetLength(packetDropped))))"
attr title "queue bit length"
attr unit b
vector 79 LoRaNetwork_moving.gwRouter[0].eth[0].mac txPk:vector(packetBytes) ETV
attr interpolationmode none
attr recordingmode vector(packetBytes)
attr source packetSentToLower
attr title "packets transmitted, packetBytes"
vector 80 LoRaNetwork_moving.loRaGW_moving[0].eth[0].mac rxPkOk:vector(packetBytes) ETV
attr interpolationmode none
attr recordingmode vector(packetBytes)
attr source rxPkOk
attr title "packets received OK, packetBytes"
vector 81 LoRaNetwork_moving.loRaGW_moving[0].eth[0].mac passedUpPk:vector(packetBytes) ETV
attr interpolationmode none
attr recordingmode vector(packetBytes)
attr source packetSentToUpper
attr title "packets passed to higher layer, packetBytes"
vector 82 LoRaNetwork_moving.loRaGW_moving[0].ethernet decapPk:vector(packetBytes) ETV
attr interpolationmode none
attr recordingmode vector(packetBytes)
attr source decapPk
attr title "packets decapsulated, packetBytes"
vector 83 LoRaNetwork_moving.gwRouter[0].ppp[0].queue incomingPacketLengths:vector ETV
attr interpolationmode none
attr recordingmode vector
attr source packetLength(packetPushStarted)
attr title "incoming packet lengths"
attr unit b
vector 84 LoRaNetwork_moving.gwRouter[0].ppp[0].queue incomingDataRate:vector ETV
attr interpolationmode linear
attr recordingmode vector
attr source throughput(packetPushStarted)
attr title "incoming datarate"
attr unit bps
vector 85 LoRaNetwork_moving.gwRouter[0].ppp[0].queue queueingTime:vector ETV
attr interpolationmode none
attr recordingmode vector
attr source queueingTime(packetPulled)
attr title "queueing times"
attr unit s
vector 86 LoRaNetwork_moving.gwRouter[0].ppp[0].queue outgoingPacketLengths:vector ETV
attr interpolationmode none
attr recordingmode vector
attr source packetLength(packetPulled)
attr title "outgoing packet lengths"
attr unit b
vector 87 LoRaNetwork_moving.gwRouter[0].ppp[0].queue outgoingDataRate:vector ETV
attr interpolationmode linear
attr recordingmode vector
attr source throughput(packetPulled)
attr title "outgoing datarate"
attr unit bps
vector 88 LoRaNetwork_moving.gwRouter[0].ppp[0].ppp txPk:vector(packetBytes) ETV
attr interpolationmode none
attr recordingmode vector(packetBytes)
attr source packetSentToLower
attr title "packets transmitted, packetBytes"
vector 89 LoRaNetwork_moving.gwRouter[0].ppp[0].queue queueLength:vector ETV
attr autoWarmupFilter false
attr interpolationmode sample-hold
attr recordingmode vector
attr source "warmup(atomic(constant0(packetPushEnded) + count(packetPushStarted) - count(packetPulled) - count(packetRemoved) - count(packetDropped)))"
attr title "queue length"
attr unit pk
vector 90 LoRaNetwork_moving.gwRouter[0].ppp[0].queue queueBitLength:vector ETV
attr autoWarmupFilter false
attr interpolationmode sample-hold
attr recordingmode vector
attr source "warmup(atomic(constant0(packetPushEnded) + sum(packetLength(packetPushStarted)) - sum(packetLength(packetPulled)) - sum(packetLength(packetRemoved)) - sum(packetLength(packetDropped))))"
attr title "queue bit length"
attr unit b
vector 91 LoRaNetwork_moving.internetCloud.ppp[1].ppp rxPkOk:vector(packetBytes) ETV
attr interpolationmode none
attr recordingmode vector(packetBytes)
attr source rxPkOk
attr title "packets received OK, packetBytes"
vector 92 LoRaNetwork_moving.internetCloud.ppp[1].ppp passedUpPk:vector(packetBytes) ETV
attr interpolationmode none
attr recordingmode vector(packetBytes)
attr source packetSentToUpper
attr title "packets passed to higher layer, packetBytes"
vector 93 LoRaNetwork_moving.internetCloud.ppp[0].queue incomingPacketLengths:vector ETV
attr interpolationmode none
attr recordingmode vector
attr source packetLength(packetPushStarted)
attr title "incoming packet lengths"
attr unit b
vector 94 LoRaNetwork_moving.internetCloud.ppp[0].queue incomingDataRate:vector ETV
attr interpolationmode linear
attr recordingmode vector
attr source throughput(packetPushStarted)
attr title "incoming datarate"
attr unit bps
vector 95 LoRaNetwork_moving.internetCloud.ppp[0].queue queueingTime:vector ETV
attr interpolationmode none
attr recordingmode vector
attr source queueingTime(packetPulled)
attr title "queueing times"
attr unit s
vector 96 LoRaNetwork_moving.internetCloud.ppp[0].queue outgoingPacketLengths:vector ETV
attr interpolationmode none
attr recordingmode vector
attr source packetLength(packetPulled)
attr title "outgoing packet lengths"
attr unit b
vector 97 LoRaNetwork_moving.internetCloud.ppp[0].queue outgoingDataRate:vector ETV
attr interpolationmode linear
attr recordingmode vector
attr source throughput(packetPulled)
attr title "outgoing datarate"
attr unit bps
vector 98 LoRaNetwork_moving.internetCloud.ppp[0].ppp txPk:vector(packetBytes) ETV
attr interpolationmode none
attr recordingmode vector(packetBytes)
attr source packetSentToLower
attr title "packets transmitted, packetBytes"
vector 99 LoRaNetwork_moving.internetCloud.ppp[0].queue queueLength:vector ETV
attr autoWarmupFilter false
attr interpolationmode sample-hold
attr recordingmode vector
attr source "warmup(atomic(constant0(packetPushEnded) + count(packetPushStarted) - count(packetPulled) - count(packetRemoved) - count(packetDropped)))"
attr title "queue length"
attr unit pk
vector 100 LoRaNetwork_moving.internetCloud.ppp[0].queue queueBitLength:vector ETV
attr autoWarmupFilter false
attr interpolationmode sample-hold
attr recordingmode vector
attr source "warmup(atomic(constant0(packetPushEnded) + sum(packetLength(packetPushStarted)) - sum(packetLength(packetPulled)) - sum(packetLength(packetRemoved)) - sum(packetLength(packetDropped))))"
attr title "queue bit length"
attr unit b
vector 101 LoRaNetwork_moving.nsRouter.ppp[0].ppp rxPkOk:vector(packetBytes) ETV
attr interpolationmode none
attr recordingmode vector(packetBytes)
attr source rxPkOk
attr title "packets received OK, packetBytes"
vector 102 LoRaNetwork_moving.nsRouter.ppp[0].ppp passedUpPk:vector(packetBytes) ETV
attr interpolationmode none
attr recordingmode vector(packetBytes)
attr source packetSentToUpper
attr title "packets passed to higher layer, packetBytes"
vector 103 LoRaNetwork_moving.nsRouter.ipv4.arp arpRequestSent:vector(packetBytes) ETV
attr recordingmode vector(packetBytes)
attr source arpRequestSent
attr title "ARP request sent, packetBytes"
vector 104 LoRaNetwork_moving.nsRouter.ethernet encapPk:vector(packetBytes) ETV
attr interpolationmode none
attr recordingmode vector(packetBytes)
attr source encapPk
attr title "packets encapsulated, packetBytes"
vector 105 LoRaNetwork_moving.nsRouter.eth[0].queue incomingPacketLengths:vector ETV
attr interpolationmode none
attr recordingmode vector
attr source packetLength(packetPushStarted)
attr title "incoming packet lengths"
attr unit b
vector 106 LoRaNetwork_moving.nsRouter.eth[0].queue incomingDataRate:vector ETV
attr interpolationmode linear
attr recordingmode vector
attr source throughput(packetPushStarted)
attr title "incoming datarate"
attr unit bps
vector 107 LoRaNetwork_moving.nsRouter.eth[0].queue queueingTime:vector ETV
attr interpolationmode none
attr recordingmode vector
attr source queueingTime(packetPulled)
attr title "queueing times"
attr unit s
vector 108 LoRaNetwork_moving.nsRouter.eth[0].queue outgoingPacketLengths:vector ETV
attr interpolationmode none
attr recordingmode vector
attr source packetLength(packetPulled)
attr title "outgoing packet lengths"
attr unit b
vector 109 LoRaNetwork_moving.nsRouter.eth[0].queue outgoingDataRate:vector ETV
attr interpolationmode linear
attr recordingmode vector
attr source throughput(packetPulled)
attr title "outgoing datarate"
attr unit bps
vector 110 LoRaNetwork_moving.nsRouter.eth[0].mac packetReceivedFromUpper:vector(packetBytes) ETV
attr interpolationmode none
attr recordingmode vector(packetBytes)
attr source packetReceivedFromUpper
attr title "packet bytes from higher layer, packetBytes"
vector 111 LoRaNetwork_moving.nsRouter.eth[0].queue queueLength:vector ETV
attr autoWarmupFilter false
attr interpolationmode sample-hold
attr recordingmode vector
attr source "warmup(atomic(constant0(packetPushEnded) + count(packetPushStarted) - count(packetPulled) - count(packetRemoved) - count(packetDropped)))"
attr title "queue length"
attr unit pk
vector 112 LoRaNetwork_moving.nsRouter.eth[0].queue queueBitLength:vector ETV
attr autoWarmupFilter false
attr interpolationmode sample-hold
attr recordingmode vector
attr source "warmup(atomic(constant0(packetPushEnded) + sum(packetLength(packetPushStarted)) - sum(packetLength(packetPulled)) - sum(packetLength(packetRemoved)) - sum(packetLength(packetDropped))))"
attr title "queue bit length"
attr unit b
vector 113 LoRaNetwork_moving.nsRouter.eth[0].mac txPk:vector(packetBytes) ETV
attr interpolationmode none
attr recordingmode vector(packetBytes)
attr source packetSentToLower
attr title "packets transmitted, packetBytes"
vector 114 LoRaNetwork_moving.networkServer.eth[0].mac rxPkOk:vector(packetBytes) ETV
attr interpolationmode none
attr recordingmode vector(packetBytes)
attr source rxPkOk
attr title "packets received OK, packetBytes"
vector 115 LoRaNetwork_moving.networkServer.eth[0].mac passedUpPk:vector(packetBytes) ETV
attr interpolationmode none
attr recordingmode vector(packetBytes)
attr source packetSentToUpper
attr title "packets passed to higher layer, packetBytes"
vector 116 LoRaNetwork_moving.networkServer.ethernet decapPk:vector(packetBytes) ETV
attr interpolationmode none
attr recordingmode vector(packetBytes)
attr source decapPk
attr title "packets decapsulated, packetBytes"
vector 117 LoRaNetwork_moving.networkServer.ipv4.arp arpReplySent:vector(packetBytes) ETV
attr recordingmode vector(packetBytes)
attr source arpReplySent
attr title "ARP replies sent, packetBytes"
vector 118 LoRaNetwork_moving.networkServer.ethernet encapPk:vector(packetBytes) ETV
attr interpolationmode none
attr recordingmode vector(packetBytes)
attr source encapPk
attr title "packets encapsulated, packetBytes"
vector 119 LoRaNetwork_moving.networkServer.eth[0].queue incomingPacketLengths:vector ETV
attr interpolationmode none
attr recordingmode vector
attr source packetLength(packetPushStarted)
attr title "incoming packet lengths"
attr unit b
vector 120 LoRaNetwork_moving.networkServer.eth[0].queue incomingDataRate:vector ETV
attr interpolationmode linear
attr recordingmode vector
attr source throughput(packetPushStarted)
attr title "incoming datarate"
attr unit bps
vector 121 LoRaNetwork_moving.networkServer.eth[0].queue queueingTime:vector ETV
attr interpolationmode none
attr recordingmode vector
attr source queueingTime(packetPulled)
attr title "queueing times"
attr unit s
vector 122 LoRaNetwork_moving.networkServer.eth[0].queue outgoingPacketLengths:vector ETV
attr interpolationmode none
attr recordingmode vector
attr source packetLength(packetPulled)
attr title "outgoing packet lengths"
attr unit b
vector 123 LoRaNetwork_moving.networkServer.eth[0].queue outgoingDataRate:vector ETV
attr interpolationmode linear
attr recordingmode vector
attr source throughput(packetPulled)
attr title "outgoing datarate"
attr unit bps
vector 124 LoRaNetwork_moving.networkServer.eth[0].mac packetReceivedFromUpper:vector(packetBytes) ETV
attr interpolationmode none
attr recordingmode vector(packetBytes)
attr source packetReceivedFromUpper
attr title "packet bytes from higher layer, packetBytes"
vector 125 LoRaNetwork_moving.networkServer.eth[0].queue queueLength:vector ETV
attr autoWarmupFilter false
attr interpolationmode sample-hold
attr recordingmode vector
attr source "warmup(atomic(constant0(packetPushEnded) + count(packetPushStarted) - count(packetPulled) - count(packetRemoved) - count(packetDropped)))"
attr title "queue length"
attr unit pk
vector 126 LoRaNetwork_moving.networkServer.eth[0].queue queueBitLength:vector ETV
attr autoWarmupFilter false
attr interpolationmode sample-hold
attr recordingmode vector
attr source "warmup(atomic(constant0(packetPushEnded) + sum(packetLength(packetPushStarted)) - sum(packetLength(packetPulled)) - sum(packetLength(packetRemoved)) - sum(packetLength(packetDropped))))"
attr title "queue bit length"
attr unit b
vector 127 LoRaNetwork_moving.networkServer.eth[0].mac txPk:vector(packetBytes) ETV
attr interpolationmode none
attr recordingmode vector(packetBytes)
attr source packetSentToLower
attr title "packets transmitted, packetBytes"
vector 128 LoRaNetwork_moving.nsRouter.eth[0].mac rxPkOk:vector(packetBytes) ETV
attr interpolationmode none
attr recordingmode vector(packetBytes)
attr source rxPkOk
attr title "packets received OK, packetBytes"
vector 129 LoRaNetwork_moving.nsRouter.eth[0].mac passedUpPk:vector(packetBytes) ETV
attr interpolationmode none
attr recordingmode vector(packetBytes)
attr source packetSentToUpper
attr title "packets passed to higher layer, packetBytes"
vector 130 LoRaNetwork_moving.nsRouter.ethernet decapPk:vector(packetBytes) ETV
attr interpolationmode none
attr recordingmode vector(packetBytes)
attr source decapPk
attr title "packets decapsulated, packetBytes"
vector 131 LoRaNetwork_moving.networkServer.udp packetReceived:vector(packetBytes) ETV
attr interpolationmode none
attr recordingmode vector(packetBytes)
attr source packetReceived
attr title "packets received, packetBytes"
vector 132 LoRaNetwork_moving.networkServer.app[0] "Vector of SNIR per node" ETV
vector 133 LoRaNetwork_moving.networkServer.app[0] "Vector of RSSI per node" ETV
vector 134 LoRaNetwork_moving.networkServer.app[0] "received simTime" ETV
vector 135 LoRaNetwork_moving.loRaNodes[8].LoRaNic.radio receptionState:vector ETV
attr interpolationmode sample-hold
attr recordingmode vector
attr source receptionStateChanged
attr title "Radio reception state"
vector 136 LoRaNetwork_moving.networkServer.app[0] "Received Sequence number" ETV
vector 137 LoRaNetwork_moving.loRaNodes[6].app[0] "SF Vector" ETV
vector 138 LoRaNetwork_moving.loRaNodes[6].app[0] "TP Vector" ETV
vector 139 LoRaNetwork_moving.loRaNodes[6].LoRaNic.queue incomingPacketLengths:vector ETV
attr interpolationmode none
attr recordingmode vector
attr source packetLength(packetPushStarted)
attr title "incoming packet lengths"
attr unit b
vector 140 LoRaNetwork_moving.loRaNodes[6].LoRaNic.queue incomingDataRate:vector ETV
attr interpolationmode linear
attr recordingmode vector
attr source throughput(packetPushStarted)
attr title "incoming datarate"
attr unit bps
vector 141 LoRaNetwork_moving.loRaNodes[6].LoRaNic.queue queueingTime:vector ETV
attr interpolationmode none
attr recordingmode vector
attr source queueingTime(packetPulled)
attr title "queueing times"
attr unit s
vector 142 LoRaNetwork_moving.loRaNodes[6].LoRaNic.queue outgoingPacketLengths:vector ETV
attr interpolationmode none
attr recordingmode vector
attr source packetLength(packetPulled)
attr title "outgoing packet lengths"
attr unit b
vector 143 LoRaNetwork_moving.loRaNodes[6].LoRaNic.queue outgoingDataRate:vector ETV
attr interpolationmode linear
attr recordingmode vector
attr source throughput(packetPulled)
attr title "outgoing datarate"
attr unit bps
vector 144 LoRaNetwork_moving.loRaNodes[6].LoRaNic.radio.IdealEpEnergyStorage residualEnergyCapacity:vector ETV
attr interpolationmode linear
attr recordingmode vector
attr source residualEnergyCapacityChanged
attr title "Residual energy capacity"
vector 145 LoRaNetwork_moving.loRaNodes[6].LoRaNic.radio transmissionState:vector ETV
attr interpolationmode sample-hold
attr recordingmode vector
attr source transmissionStateChanged
attr title "Radio transmission state"
vector 146 LoRaNetwork_moving.loRaNodes[6].LoRaNic.queue queueLength:vector ETV
attr autoWarmupFilter false
attr interpolationmode sample-hold
attr recordingmode vector
attr source "warmup(atomic(constant0(packetPushEnded) + count(packetPushStarted) - count(packetPulled) - count(packetRemoved) - count(packetDropped)))"
attr title "queue length"
attr unit pk
vector 147 LoRaNetwork_moving.loRaNodes[6].LoRaNic.queue queueBitLength:vector ETV
attr autoWarmupFilter false
attr interpolationmode sample-hold
attr recordingmode vector
attr source "warmup(atomic(constant0(packetPushEnded) + sum(packetLength(packetPushStarted)) - sum(packetLength(packetPulled)) - sum(packetLength(packetRemoved)) - sum(packetLength(packetDropped))))"
attr title "queue bit length"
attr unit b
vector 148 LoRaNetwork_moving.networkServer.app[0] "Vector of SNIR per node" ETV
vector 149 LoRaNetwork_moving.networkServer.app[0] "Vector of RSSI per node" ETV
vector 150 LoRaNetwork_moving.networkServer.app[0] "received simTime" ETV
vector 151 LoRaNetwork_moving.loRaNodes[0].app[0] "SF Vector" ETV
vector 152 LoRaNetwork_moving.loRaNodes[0].app[0] "TP Vector" ETV
vector 153 LoRaNetwork_moving.loRaNodes[0].LoRaNic.queue incomingPacketLengths:vector ETV
attr interpolationmode none
attr recordingmode vector
attr source packetLength(packetPushStarted)
attr title "incoming packet lengths"
attr unit b
vector 154 LoRaNetwork_moving.loRaNodes[0].LoRaNic.queue incomingDataRate:vector ETV
attr interpolationmode linear
attr recordingmode vector
attr source throughput(packetPushStarted)
attr title "incoming datarate"
attr unit bps
vector 155 LoRaNetwork_moving.loRaNodes[0].LoRaNic.queue queueingTime:vector ETV
attr interpolationmode none
attr recordingmode vector
attr source queueingTime(packetPulled)
attr title "queueing times"
attr unit s
vector 156 LoRaNetwork_moving.loRaNodes[0].LoRaNic.queue outgoingPacketLengths:vector ETV
attr interpolationmode none
attr recordingmode vector
attr source packetLength(packetPulled)
attr title "outgoing packet lengths"
attr unit b
vector 157 LoRaNetwork_moving.loRaNodes[0].LoRaNic.queue outgoingDataRate:vector ETV
attr interpolationmode linear
attr recordingmode vector
attr source throughput(packetPulled)
attr title "outgoing datarate"
attr unit bps
vector 158 LoRaNetwork_moving.loRaNodes[0].LoRaNic.radio.IdealEpEnergyStorage residualEnergyCapacity:vector ETV
attr interpolationmode linear
attr recordingmode vector
attr source residualEnergyCapacityChanged
attr title "Residual energy capacity"
vector 159 LoRaNetwork_moving.loRaNodes[0].LoRaNic.radio transmissionState:vector ETV
attr interpolationmode sample-hold
attr recordingmode vector
attr source transmissionStateChanged
attr title "Radio transmission state"
vector 160 LoRaNetwork_moving.loRaNodes[0].LoRaNic.queue queueLength:vector ETV
attr autoWarmupFilter false
attr interpolationmode sample-hold
attr recordingmode vector
attr source "warmup(atomic(constant0(packetPushEnded) + count(packetPushStarted) - count(packetPulled) - count(packetRemoved) - count(packetDropped)))"
attr title "queue length"
attr unit pk
vector 161 LoRaNetwork_moving.loRaNodes[0].LoRaNic.queue queueBitLength:vector ETV
attr autoWarmupFilter false
attr interpolationmode sample-hold
attr recordingmode vector
attr source "warmup(atomic(constant0(packetPushEnded) + sum(packetLength(packetPushStarted)) - sum(packetLength(packetPulled)) - sum(packetLength(packetRemoved)) - sum(packetLength(packetDropped))))"
attr title "queue bit length"
attr unit b
vector 162 LoRaNetwork_moving.networkServer.app[0] "Vector of SNIR per node" ETV
vector 163 LoRaNetwork_moving.networkServer.app[0] "Vector of RSSI per node" ETV
vector 164 LoRaNetwork_moving.networkServer.app[0] "received simTime" ETV
vector 165 LoRaNetwork_moving.loRaNodes[6].LoRaNic.radio receptionState:vector ETV
attr interpolationmode sample-hold
attr recordingmode vector
attr source receptionStateChanged
attr title "Radio reception state"
vector 166 LoRaNetwork_moving.loRaNodes[0].LoRaNic.radio receptionState:vector ETV
attr interpolationmode sample-hold
attr recordingmode vector
attr source receptionStateChanged
attr title "Radio reception state"
vector 167 LoRaNetwork_moving.loRaNodes[1].app[0] "SF Vector" ETV
vector 168 LoRaNetwork_moving.loRaNodes[1].app[0] "TP Vector" ETV
vector 169 LoRaNetwork_moving.loRaNodes[1].LoRaNic.queue incomingPacketLengths:vector ETV
attr interpolationmode none
attr recordingmode vector
attr source packetLength(packetPushStarted)
attr title "incoming packet lengths"
attr unit b
vector 170 LoRaNetwork_moving.loRaNodes[1].LoRaNic.queue incomingDataRate:vector ETV
attr interpolationmode linear
attr recordingmode vector
attr source throughput(packetPushStarted)
attr title "incoming datarate"
attr unit bps
vector 171 LoRaNetwork_moving.loRaNodes[1].LoRaNic.queue queueingTime:vector ETV
attr interpolationmode none
attr recordingmode vector
attr source queueingTime(packetPulled)
attr title "queueing times"
attr unit s
vector 172 LoRaNetwork_moving.loRaNodes[1].LoRaNic.queue outgoingPacketLengths:vector ETV
attr interpolationmode none
attr recordingmode vector
attr source packetLength(packetPulled)
attr title "outgoing packet lengths"
attr unit b
vector 173 LoRaNetwork_moving.loRaNodes[1].LoRaNic.queue outgoingDataRate:vector ETV
attr interpolationmode linear
attr recordingmode vector
attr source throughput(packetPulled)
attr title "outgoing datarate"
attr unit bps
vector 174 LoRaNetwork_moving.loRaNodes[1].LoRaNic.radio.IdealEpEnergyStorage residualEnergyCapacity:vector ETV
attr interpolationmode linear
attr recordingmode vector
attr source residualEnergyCapacityChanged
attr title "Residual energy capacity"
vector 175 LoRaNetwork_moving.loRaNodes[1].LoRaNic.radio transmissionState:vector ETV
attr interpolationmode sample-hold
attr recordingmode vector
attr source transmissionStateChanged
attr title "Radio transmission state"
vector 176 LoRaNetwork_moving.loRaNodes[1].LoRaNic.queue queueLength:vector ETV
attr autoWarmupFilter false
attr interpolationmode sample-hold
attr recordingmode vector
attr source "warmup(atomic(constant0(packetPushEnded) + count(packetPushStarted) - count(packetPulled) - count(packetRemoved) - count(packetDropped)))"
attr title "queue length"
attr unit pk
vector 177 LoRaNetwork_moving.loRaNodes[1].LoRaNic.queue queueBitLength:vector ETV
attr autoWarmupFilter false
attr interpolationmode sample-hold
attr recordingmode vector
attr source "warmup(atomic(constant0(packetPushEnded) + sum(packetLength(packetPushStarted)) - sum(packetLength(packetPulled)) - sum(packetLength(packetRemoved)) - sum(packetLength(packetDropped))))"
attr title "queue bit length"
attr unit b
vector 178 LoRaNetwork_moving.networkServer.app[0] "Vector of SNIR per node" ETV
vector 179 LoRaNetwork_moving.networkServer.app[0] "Vector of RSSI per node" ETV
vector 180 LoRaNetwork_moving.networkServer.app[0] "received simTime" ETV
vector 181 LoRaNetwork_moving.networkServer.app[0] "Received Sequence number" ETV
vector 182 LoRaNetwork_moving.networkServer.app[0] "Received Sequence number" ETV
vector 183 LoRaNetwork_moving.loRaNodes[4].app[0] "SF Vector" ETV
vector 184 LoRaNetwork_moving.loRaNodes[4].app[0] "TP Vector" ETV
vector 185 LoRaNetwork_moving.loRaNodes[4].LoRaNic.queue incomingPacketLengths:vector ETV
attr interpolationmode none
attr recordingmode vector
attr source packetLength(packetPushStarted)
attr title "incoming packet lengths"
attr unit b
vector 186 LoRaNetwork_moving.loRaNodes[4].LoRaNic.queue incomingDataRate:vector ETV
attr interpolationmode linear
attr recordingmode vector
attr source throughput(packetPushStarted)
attr title "incoming datarate"
attr unit bps
vector 187 LoRaNetwork_moving.loRaNodes[4].LoRaNic.queue queueingTime:vector ETV
attr interpolationmode none
attr recordingmode vector
attr source queueingTime(packetPulled)
attr title "queueing times"
attr unit s
vector 188 LoRaNetwork_moving.loRaNodes[4].LoRaNic.queue outgoingPacketLengths:vector ETV
attr interpolationmode none
attr recordingmode vector
attr source packetLength(packetPulled)
attr title "outgoing packet lengths"
attr unit b
vector 189 LoRaNetwork_moving.loRaNodes[4].LoRaNic.queue outgoingDataRate:vector ETV
attr interpolationmode linear
attr recordingmode vector
attr source throughput(packetPulled)
attr title "outgoing datarate"
attr unit bps
vector 190 LoRaNetwork_moving.loRaNodes[4].LoRaNic.radio.IdealEpEnergyStorage residualEnergyCapacity:vector ETV
attr interpolationmode linear
attr recordingmode vector
attr source residualEnergyCapacityChanged
attr title "Residual energy capacity"
vector 191 LoRaNetwork_moving.loRaNodes[4].LoRaNic.radio transmissionState:vector ETV
attr interpolationmode sample-hold
attr recordingmode vector
attr source transmissionStateChanged
attr title "Radio transmission state"
vector 192 LoRaNetwork_moving.loRaNodes[4].LoRaNic.queue queueLength:vector ETV
attr autoWarmupFilter false
attr interpolationmode sample-hold
attr recordingmode vector
attr source "warmup(atomic(constant0(packetPushEnded) + count(packetPushStarted) - count(packetPulled) - count(packetRemoved) - count(packetDropped)))"
attr title "queue length"
attr unit pk
vector 193 LoRaNetwork_moving.loRaNodes[4].LoRaNic.queue queueBitLength:vector ETV
attr autoWarmupFilter false
attr interpolationmode sample-hold
attr recordingmode vector
attr source "warmup(atomic(constant0(packetPushEnded) + sum(packetLength(packetPushStarted)) - sum(packetLength(packetPulled)) - sum(packetLength(packetRemoved)) - sum(packetLength(packetDropped))))"
attr title "queue bit length"
attr unit b
vector 194 LoRaNetwork_moving.networkServer.app[0] "Vector of SNIR per node" ETV
vector 195 LoRaNetwork_moving.networkServer.app[0] "Vector of RSSI per node" ETV
vector 196 LoRaNetwork_moving.networkServer.app[0] "received simTime" ETV
vector 197 LoRaNetwork_moving.loRaNodes[9].app[0] "SF Vector" ETV
vector 198 LoRaNetwork_moving.loRaNodes[9].app[0] "TP Vector" ETV
vector 199 LoRaNetwork_moving.loRaNodes[9].LoRaNic.queue incomingPacketLengths:vector ETV
attr interpolationmode none
attr recordingmode vector
attr source packetLength(packetPushStarted)
attr title "incoming packet lengths"
attr unit b
vector 200 LoRaNetwork_moving.loRaNodes[9].LoRaNic.queue incomingDataRate:vector ETV
attr interpolationmode linear
attr recordingmode vector
attr source throughput(packetPushStarted)
attr title "incoming datarate"
attr unit bps
vector 201 LoRaNetwork_moving.loRaNodes[9].LoRaNic.queue queueingTime:vector ETV
attr interpolationmode none
attr recordingmode vector
attr source queueingTime(packetPulled)
attr title "queueing times"
attr unit s
vector 202 LoRaNetwork_moving.loRaNodes[9].LoRaNic.queue outgoingPacketLengths:vector ETV
attr interpolationmode none
attr recordingmode vector
attr source packetLength(packetPulled)
attr title "outgoing packet lengths"
attr unit b
vector 203 LoRaNetwork_moving.loRaNodes[9].LoRaNic.queue outgoingDataRate:vector ETV
attr interpolationmode linear
attr recordingmode vector
attr source throughput(packetPulled)
attr title "outgoing datarate"
attr unit bps
vector 204 LoRaNetwork_moving.loRaNodes[9].LoRaNic.radio.IdealEpEnergyStorage residualEnergyCapacity:vector ETV
attr interpolationmode linear
attr recordingmode vector
attr source residualEnergyCapacityChanged
attr title "Residual energy capacity"
vector 205 LoRaNetwork_moving.loRaNodes[9].LoRaNic.radio transmissionState:vector ETV
attr interpolationmode sample-hold
attr recordingmode vector
attr source transmissionStateChanged
attr title "Radio transmission state"
vector 206 LoRaNetwork_moving.loRaNodes[9].LoRaNic.queue queueLength:vector ETV
attr autoWarmupFilter false
attr interpolationmode sample-hold
attr recordingmode vector
attr source "warmup(atomic(constant0(packetPushEnded) + count(packetPushStarted) - count(packetPulled) - count(packetRemoved) - count(packetDropped)))"
attr title "queue length"
attr unit pk
vector 207 LoRaNetwork_moving.loRaNodes[9].LoRaNic.queue queueBitLength:vector ETV
attr autoWarmupFilter false
attr interpolationmode sample-hold
attr recordingmode vector
attr source "warmup(atomic(constant0(packetPushEnded) + sum(packetLength(packetPushStarted)) - sum(packetLength(packetPulled)) - sum(packetLength(packetRemoved)) - sum(packetLength(packetDropped))))"
attr title "queue bit length"
attr unit b
vector 208 LoRaNetwork_moving.networkServer.app[0] "Vector of SNIR per node" ETV
vector 209 LoRaNetwork_moving.networkServer.app[0] "Vector of RSSI per node" ETV
vector 210 LoRaNetwork_moving.networkServer.app[0] "received simTime" ETV
vector 211 LoRaNetwork_moving.loRaNodes[1].LoRaNic.radio receptionState:vector ETV
attr interpolationmode sample-hold
attr recordingmode vector
attr source receptionStateChanged
attr title "Radio reception state"
vector 212 LoRaNetwork_moving.networkServer.app[0] "Received Sequence number" ETV
vector 213 LoRaNetwork_moving.loRaNodes[4].LoRaNic.radio receptionState:vector ETV
attr interpolationmode sample-hold
attr recordingmode vector
attr source receptionStateChanged
attr title "Radio reception state"
vector 214 LoRaNetwork_moving.networkServer.app[0] "Received Sequence number" ETV
vector 215 LoRaNetwork_moving.loRaNodes[9].LoRaNic.radio receptionState:vector ETV
attr interpolationmode sample-hold
attr recordingmode vector
attr source receptionStateChanged
attr title "Radio reception state"
vector 216 LoRaNetwork_moving.networkServer.app[0] "Received Sequence number" ETV
vector 217 LoRaNetwork_moving.loRaNodes[2].app[0] "SF Vector" ETV
vector 218 LoRaNetwork_moving.loRaNodes[2].app[0] "TP Vector" ETV
vector 219 LoRaNetwork_moving.loRaNodes[2].LoRaNic.queue incomingPacketLengths:vector ETV
attr interpolationmode none
attr recordingmode vector
attr source packetLength(packetPushStarted)
attr title "incoming packet lengths"
attr unit b
vector 220 LoRaNetwork_moving.loRaNodes[2].LoRaNic.queue incomingDataRate:vector ETV
attr interpolationmode linear
attr recordingmode vector
attr source throughput(packetPushStarted)
attr title "incoming datarate"
attr unit bps
vector 221 LoRaNetwork_moving.loRaNodes[2].LoRaNic.queue queueingTime:vector ETV
attr interpolationmode none
attr recordingmode vector
attr source queueingTime(packetPulled)
attr title "queueing times"
attr unit s
vector 222 LoRaNetwork_moving.loRaNodes[2].LoRaNic.queue outgoingPacketLengths:vector ETV
attr interpolationmode none
attr recordingmode vector
attr source packetLength(packetPulled)
attr title "outgoing packet lengths"
attr unit b
vector 223 LoRaNetwork_moving.loRaNodes[2].LoRaNic.queue outgoingDataRate:vector ETV
attr interpolationmode linear
attr recordingmode vector
attr source throughput(packetPulled)
attr title "outgoing datarate"
attr unit bps
vector 224 LoRaNetwork_moving.loRaNodes[2].LoRaNic.radio.IdealEpEnergyStorage residualEnergyCapacity:vector ETV
attr interpolationmode linear
attr recordingmode vector
attr source residualEnergyCapacityChanged
attr title "Residual energy capacity"
vector 225 LoRaNetwork_moving.loRaNodes[2].LoRaNic.radio transmissionState:vector ETV
attr interpolationmode sample-hold
attr recordingmode vector
attr source transmissionStateChanged
attr title "Radio transmission state"
vector 226 LoRaNetwork_moving.loRaNodes[2].LoRaNic.queue queueLength:vector ETV
attr autoWarmupFilter false
attr interpolationmode sample-hold
attr recordingmode vector
attr source "warmup(atomic(constant0(packetPushEnded) + count(packetPushStarted) - count(packetPulled) - count(packetRemoved) - count(packetDropped)))"
attr title "queue length"
attr unit pk
vector 227 LoRaNetwork_moving.loRaNodes[2].LoRaNic.queue queueBitLength:vector ETV
attr autoWarmupFilter false
attr interpolationmode sample-hold
attr recordingmode vector
attr source "warmup(atomic(constant0(packetPushEnded) + sum(packetLength(packetPushStarted)) - sum(packetLength(packetPulled)) - sum(packetLength(packetRemoved)) - sum(packetLength(packetDropped))))"
attr title "queue bit length"
attr unit b
vector 228 LoRaNetwork_moving.networkServer.app[0] "Vector of SNIR per node" ETV
vector 229 LoRaNetwork_moving.networkServer.app[0] "Vector of RSSI per node" ETV
vector 230 LoRaNetwork_moving.networkServer.app[0] "received simTime" ETV
vector 231 LoRaNetwork_moving.loRaNodes[2].LoRaNic.radio receptionState:vector ETV
attr interpolationmode sample-hold
attr recordingmode vector
attr source receptionStateChanged
attr title "Radio reception state"
vector 232 LoRaNetwork_moving.networkServer.app[0] "Received Sequence number" ETV
vector 233 LoRaNetwork_moving.loRaNodes[3].app[0] "SF Vector" ETV
vector 234 LoRaNetwork_moving.loRaNodes[3].app[0] "TP Vector" ETV
vector 235 LoRaNetwork_moving.loRaNodes[3].LoRaNic.queue incomingPacketLengths:vector ETV
attr interpolationmode none
attr recordingmode vector
attr source packetLength(packetPushStarted)
attr title "incoming packet lengths"
attr unit b
vector 236 LoRaNetwork_moving.loRaNodes[3].LoRaNic.queue incomingDataRate:vector ETV
attr interpolationmode linear
attr recordingmode vector
attr source throughput(packetPushStarted)
attr title "incoming datarate"
attr unit bps
vector 237 LoRaNetwork_moving.loRaNodes[3].LoRaNic.queue queueingTime:vector ETV
attr interpolationmode none
attr recordingmode vector
attr source queueingTime(packetPulled)
attr title "queueing times"
attr unit s
vector 238 LoRaNetwork_moving.loRaNodes[3].LoRaNic.queue outgoingPacketLengths:vector ETV
attr interpolationmode none
attr recordingmode vector
attr source packetLength(packetPulled)
attr title "outgoing packet lengths"
attr unit b
vector 239 LoRaNetwork_moving.loRaNodes[3].LoRaNic.queue outgoingDataRate:vector ETV
attr interpolationmode linear
attr recordingmode vector
attr source throughput(packetPulled)
attr title "outgoing datarate"
attr unit bps
vector 240 LoRaNetwork_moving.loRaNodes[3].LoRaNic.radio.IdealEpEnergyStorage residualEnergyCapacity:vector ETV
attr interpolationmode linear
attr recordingmode vector
attr source residualEnergyCapacityChanged
attr title "Residual energy capacity"
vector 241 LoRaNetwork_moving.loRaNodes[3].LoRaNic.radio transmissionState:vector ETV
attr interpolationmode sample-hold
attr recordingmode vector
attr source transmissionStateChanged
attr title "Radio transmission state"
vector 242 LoRaNetwork_moving.loRaNodes[3].LoRaNic.queue queueLength:vector ETV
attr autoWarmupFilter false
attr interpolationmode sample-hold
attr recordingmode vector
attr source "warmup(atomic(constant0(packetPushEnded) + count(packetPushStarted) - count(packetPulled) - count(packetRemoved) - count(packetDropped)))"
attr title "queue length"
attr unit pk
vector 243 LoRaNetwork_moving.loRaNodes[3].LoRaNic.queue queueBitLength:vector ETV
attr autoWarmupFilter false
attr interpolationmode sample-hold
attr recordingmode vector
attr source "warmup(atomic(constant0(packetPushEnded) + sum(packetLength(packetPushStarted)) - sum(packetLength(packetPulled)) - sum(packetLength(packetRemoved)) - sum(packetLength(packetDropped))))"
attr title "queue bit length"
attr unit b
vector 244 LoRaNetwork_moving.networkServer.app[0] "Vector of SNIR per node" ETV
vector 245 LoRaNetwork_moving.networkServer.app[0] "Vector of RSSI per node" ETV
vector 246 LoRaNetwork_moving.networkServer.app[0] "received simTime" ETV
vector 247 LoRaNetwork_moving.loRaNodes[7].app[0] "SF Vector" ETV
vector 248 LoRaNetwork_moving.loRaNodes[7].app[0] "TP Vector" ETV
vector 249 LoRaNetwork_moving.loRaNodes[7].LoRaNic.queue incomingPacketLengths:vector ETV
attr interpolationmode none
attr recordingmode vector
attr source packetLength(packetPushStarted)
attr title "incoming packet lengths"
attr unit b
vector 250 LoRaNetwork_moving.loRaNodes[7].LoRaNic.queue incomingDataRate:vector ETV
attr interpolationmode linear
attr recordingmode vector
attr source throughput(packetPushStarted)
attr title "incoming datarate"
attr unit bps
vector 251 LoRaNetwork_moving.loRaNodes[7].LoRaNic.queue queueingTime:vector ETV
attr interpolationmode none
attr recordingmode vector
attr source queueingTime(packetPulled)
attr title "queueing times"
attr unit s
vector 252 LoRaNetwork_moving.loRaNodes[7].LoRaNic.queue outgoingPacketLengths:vector ETV
attr interpolationmode none
attr recordingmode vector
attr source packetLength(packetPulled)
attr title "outgoing packet lengths"
attr unit b
vector 253 LoRaNetwork_moving.loRaNodes[7].LoRaNic.queue outgoingDataRate:vector ETV
attr interpolationmode linear
attr recordingmode vector
attr source throughput(packetPulled)
attr title "outgoing datarate"
attr unit bps
vector 254 LoRaNetwork_moving.loRaNodes[7].LoRaNic.radio.IdealEpEnergyStorage residualEnergyCapacity:vector ETV
attr interpolationmode linear
attr recordingmode vector
attr source residualEnergyCapacityChanged
attr title "Residual energy capacity"
vector 255 LoRaNetwork_moving.loRaNodes[7].LoRaNic.radio transmissionState:vector ETV
attr interpolationmode sample-hold
attr recordingmode vector
attr source transmissionStateChanged
attr title "Radio transmission state"
vector 256 LoRaNetwork_moving.loRaNodes[7].LoRaNic.queue queueLength:vector ETV
attr autoWarmupFilter false
attr interpolationmode sample-hold
attr recordingmode vector
attr source "warmup(atomic(constant0(packetPushEnded) + count(packetPushStarted) - count(packetPulled) - count(packetRemoved) - count(packetDropped)))"
attr title "queue length"
attr unit pk
vector 257 LoRaNetwork_moving.loRaNodes[7].LoRaNic.queue queueBitLength:vector ETV
attr autoWarmupFilter false
attr interpolationmode sample-hold
attr recordingmode vector
attr source "warmup(atomic(constant0(packetPushEnded) + sum(packetLength(packetPushStarted)) - sum(packetLength(packetPulled)) - sum(packetLength(packetRemoved)) - sum(packetLength(packetDropped))))"
attr title "queue bit length"
attr unit b
vector 258 LoRaNetwork_moving.networkServer.app[0] "Vector of SNIR per node" ETV
vector 259 LoRaNetwork_moving.networkServer.app[0] "Vector of RSSI per node" ETV
vector 260 LoRaNetwork_moving.networkServer.app[0] "received simTime" ETV
vector 261 LoRaNetwork_moving.loRaNodes[5].app[0] "SF Vector" ETV
vector 262 LoRaNetwork_moving.loRaNodes[5].app[0] "TP Vector" ETV
vector 263 LoRaNetwork_moving.loRaNodes[5].LoRaNic.queue incomingPacketLengths:vector ETV
attr interpolationmode none
attr recordingmode vector
attr source packetLength(packetPushStarted)
attr title "incoming packet lengths"
attr unit b
vector 264 LoRaNetwork_moving.loRaNodes[5].LoRaNic.queue incomingDataRate:vector ETV
attr interpolationmode linear
attr recordingmode vector
attr source throughput(packetPushStarted)
attr title "incoming datarate"
attr unit bps
vector 265 LoRaNetwork_moving.loRaNodes[5].LoRaNic.queue queueingTime:vector ETV
attr interpolationmode none
attr recordingmode vector
attr source queueingTime(packetPulled)
attr title "queueing times"
attr unit s
vector 266 LoRaNetwork_moving.loRaNodes[5].LoRaNic.queue outgoingPacketLengths:vector ETV
attr interpolationmode none
attr recordingmode vector
attr source packetLength(packetPulled)
attr title "outgoing packet lengths"
attr unit b
vector 267 LoRaNetwork_moving.loRaNodes[5].LoRaNic.queue outgoingDataRate:vector ETV
attr interpolationmode linear
attr recordingmode vector
attr source throughput(packetPulled)
attr title "outgoing datarate"
attr unit bps
vector 268 LoRaNetwork_moving.loRaNodes[5].LoRaNic.radio.IdealEpEnergyStorage residualEnergyCapacity:vector ETV
attr interpolationmode linear
attr recordingmode vector
attr source residualEnergyCapacityChanged
attr title "Residual energy capacity"
vector 269 LoRaNetwork_moving.loRaNodes[5].LoRaNic.radio transmissionState:vector ETV
attr interpolationmode sample-hold
attr recordingmode vector
attr source transmissionStateChanged
attr title "Radio transmission state"
vector 270 LoRaNetwork_moving.loRaNodes[5].LoRaNic.queue queueLength:vector ETV
attr autoWarmupFilter false
attr interpolationmode sample-hold
attr recordingmode vector
attr source "warmup(atomic(constant0(packetPushEnded) + count(packetPushStarted) - count(packetPulled) - count(packetRemoved) - count(packetDropped)))"
attr title "queue length"
attr unit pk
vector 271 LoRaNetwork_moving.loRaNodes[5].LoRaNic.queue queueBitLength:vector ETV
attr autoWarmupFilter false
attr interpolationmode sample-hold
attr recordingmode vector
attr source "warmup(atomic(constant0(packetPushEnded) + sum(packetLength(packetPushStarted)) - sum(packetLength(packetPulled)) - sum(packetLength(packetRemoved)) - sum(packetLength(packetDropped))))"
attr title "queue bit length"
attr unit b
vector 272 LoRaNetwork_moving.networkServer.app[0] "Vector of SNIR per node" ETV
vector 273 LoRaNetwork_moving.networkServer.app[0] "Vector of RSSI per node" ETV
vector 274 LoRaNetwork_moving.networkServer.app[0] "received simTime" ETV
vector 275 LoRaNetwork_moving.loRaNodes[3].LoRaNic.radio receptionState:vector ETV
attr interpolationmode sample-hold
attr recordingmode vector
attr source receptionStateChanged
attr title "Radio reception state"
vector 276 LoRaNetwork_moving.loRaNodes[7].LoRaNic.radio receptionState:vector ETV
attr interpolationmode sample-hold
attr recordingmode vector
attr source receptionStateChanged
attr title "Radio reception state"
vector 277 LoRaNetwork_moving.networkServer.app[0] "Received Sequence number" ETV
vector 278 LoRaNetwork_moving.networkServer.app[0] "Received Sequence number" ETV
vector 279 LoRaNetwork_moving.loRaNodes[5].LoRaNic.radio receptionState:vector ETV
attr interpolationmode sample-hold
attr recordingmode vector
attr source receptionStateChanged
attr title "Radio reception state"
vector 280 LoRaNetwork_moving.networkServer.app[0] "Received Sequence number" ETV
0	64575 8 0 0 0 0 1 0 0 0 0
1	64583 8 0 0 0 0 1 0 0 0 0
2	64591 8 0 0 0 0 1 0 0 0 0
3	64599 30652 0 78846 0 1110.87383788697 1105 0 1104 609960 449133880
4	95251 8 0 0 0 0 1 0 0 0 0
5	95259 8 0 0 0 0 1 0 0 0 0
6	95267 56889 0 78837 0 1110.87383713897 2209 0 1 1104 1104
7	152156 8 0 0 0 0 1 0 0 0 0
8	152164 56942 0 78919 0 1112.58732318669 2211 0 1 1105 1105
9	209106 8 0 0 0 0 1 0 0 0 0
10	209114 100567 0 78918 0 1112.58732291332 3391 0 0.1452 108.87162 11.3081300442
11	309681 103793 0 78883 0 1112.56780118176 3493 0 0.1452 115.56336 12.2290457256
12	413474 125633 0 78907 0 1112.5873220482 4235 0 0.1452 137.60208 14.298625756801
13	539107 106078 0 78735 0 1110.61294944523 3556 0 0.1452 117.24504 12.2993114904
14	645185 90491 0 78909 0 1112.58732207446 3068 0 0.1452 98.20371 10.1613260331
15	735676 104474 0 78364 0 1106.63246975565 3516 0 0.1452 114.92646 12.0278714886
16	840150 101343 0 78893 0 1112.58732046619 3420 0 0.1452 116.05506 12.4091369226
17	941493 94876 0 77656 0 1097.59774700667 3188 0 0.1452 107.86347 11.5059517947
18	1036369 95042 0 78872 0 1112.14603334675 3201 0 0.1452 105.27957 11.0945373957
19	1131411 97770 0 78870 0 1112.10540592045 3292 0 0.1452 108.07599 11.3484026799
20	1229181 28416 0 78918 0 1112.58732291332 1063 0 3 1698 3186
21	1257597 100558 0 78918 0 1112.58732291332 3390 0 0.1452 108.87162 11.3081300442
22	1358155 29627 0 78883 0 1112.56780118176 1106 0 3 1771 3337
23	1387782 103784 0 78883 0 1112.56780118176 3492 0 0.1452 115.56336 12.2290457256
24	1491566 35386 0 78907 0 1112.5873220482 1325 0 3 2116 3966
25	1526952 125624 0 78907 0 1112.5873220482 4234 0 0.1452 137.60208 14.298625756801
26	1652576 30068 0 78735 0 1110.61294944523 1119 0 3 1789 3361
27	1682644 106069 0 78735 0 1110.61294944523 3555 0 0.1452 117.24504 12.2993114904
28	1788713 25526 0 78909 0 1112.58732207446 961 0 3 1534 2876
29	1814239 90482 0 78909 0 1112.58732207446 3067 0 0.1452 98.20371 10.1613260331
30	1904721 29639 0 78364 0 1106.63246975565 1107 0 3 1770 3326
31	1934360 104465 0 78364 0 1106.63246975565 3515 0 0.1452 114.92646 12.0278714886
32	2038825 29005 0 78893 0 1112.58732046619 1087 0 3 1743 3291
33	2067830 101334 0 78893 0 1112.58732046619 3419 0 0.1452 116.05506 12.4091369226
34	2169164 27206 0 77656 0 1097.59774700667 1015 0 3 1627 3071
35	2196370 94867 0 77656 0 1097.59774700667 3187 0 0.1452 107.86347 11.5059517947
36	2291237 27135 0 78872 0 1112.14603334675 1014 0 3 1623 3057
37	2318372 95033 0 78872 0 1112.14603334675 3200 0 0.1452 105.27957 11.0945373957
38	2413405 27798 0 78870 0 1112.10540592045 1039 0 3 1662 3126
39	2441203 97761 0 78870 0 1112.10540592045 3291 0 0.1452 108.07599 11.3484026799
40	2538964 27 0 0 0 0 3 0 4 4 16
41	2538991 9 0 0 0 0 1 1 1 1 1
42	2539000 9 0 0 0 0 1 1 1 1 1
43	2539009 2840 58 78669 5.5104848667 1110.12651334675 106 7 7 742 5194
44	2541849 2946 58 78669 5.5104848667 1110.12651334675 106 14 14 1484 20776
45	2544795 2946 59 78670 5.5104848667 1110.12651334675 106 80 80 8480 678400
46	2547741 185031 59 78670 0.1 1110.1 11101 0 800 84000 67200000
47	2732772 3341 59 78670 5.5104848667 1110.12651334675 106 0 12.23939815428 158.09473298102 946.27442977396
48	2736113 2944 59 78670 5.5104848667 1110.12651334675 106 80 80 8480 678400
49	2739057 185059 59 78670 0.1 1110.1 11101 0 800 84000 67200000
50	2924116 39598 59 78872 5.5104848667 1112.14603334675 951 -12.196457576762 0 -6150.6657632986 51891.470137404
51	2963714 11356 59 78682 5.5104848667 1110.14603334675 424 0 2 424 636
52	2975070 3967 59 78670 5.5104848667 1110.12651334675 148 0 3 76 118
53	2979037 4041 59 78670 5.5104848667 1110.12651334675 148 0 240 6080 755200
54	2983078 30676 80 78902 5.5300067719 1112.58732199269 1105 35 35 38675 1353625
55	3013754 272 81 77186 5.5300067719 1091.95466742768 10 28 28 280 7840
56	3014026 30948 82 78904 5.5300067719 1112.58732199269 1115 28 55 61055 3350465
57	3044974 32064 83 78905 5.5300067719 1112.58732199269 1115 368 584 649000 378221120
58	3077038 188330 83 78905 0.1 1112.5 11125 0 17520 6484160 44970739200
59	3265368 29834 83 78905 5.5300067719 1112.58732199269 1115 0 0 0 0
60	3295202 32064 83 78905 5.5300067719 1112.58732199269 1115 368 584 649000 378221120
61	3327266 188330 83 78905 0.1 1112.5 11125 0 17520 6484160 44970739200
62	3515596 30949 83 78905 5.5300067719 1112.58732199269 1115 46 73 81125 5909705
63	3546545 29834 83 78905 5.5300067719 1112.58732199269 1115 0 0 0 0
64	3576379 29834 83 78905 5.5300067719 1112.58732199269 1115 0 0 0 0
65	3606213 30949 88 78911 5.5300073479 1112.58732264069 1115 64 73 81305 5929505
66	3637162 30949 89 78912 5.5300073979 1112.58732269069 1115 64 73 81305 5929505
67	3668111 30949 89 78912 5.5300073979 1112.58732269069 1115 64 73 81305 5929505
68	3699060 30949 90 78913 5.5300073979 1112.58732269069 1115 46 55 61235 3363785
69	3730009 272 91 77195 5.5300073979 1091.95466805368 10 28 28 280 7840
70	3730281 272 92 77196 5.5300073979 1091.95466805368 10 28 28 280 7840
71	3730553 282 93 77197 5.5300073979 1091.95466805368 10 368 368 3680 1354240
72	3730835 181910 93 77197 0.1 1091.9 10919 0 3680 33120 121881600
73	3912745 262 93 77197 5.5300073979 1091.95466805368 10 0 0 0 0
74	3913007 282 93 77197 5.5300073979 1091.95466805368 10 368 368 3680 1354240
75	3913289 181910 93 77197 0.1 1091.9 10919 0 3680 33120 121881600
76	4095199 272 93 77197 5.5300073979 1091.95466805368 10 46 46 460 21160
77	4095471 262 93 77197 5.5300073979 1091.95466805368 10 0 0 0 0
78	4095733 262 93 77197 5.5300073979 1091.95466805368 10 0 0 0 0
79	4095995 272 95 77201 5.5300079739 1091.95466862968 10 64 64 640 40960
80	4096267 272 96 77202 5.5300080239 1091.95466867968 10 64 64 640 40960
81	4096539 272 96 77202 5.5300080239 1091.95466867968 10 64 64 640 40960
82	4096811 272 97 77203 5.5300080239 1091.95466867968 10 46 46 460 21160
83	4097083 31782 106 78915 5.5300087219 1112.58732269069 1105 440 440 486200 213928000
84	4128865 188314 106 78915 0.1 1112.5 11125 0 13200 4857600 25206720000
85	4317179 29572 106 78915 5.5300087219 1112.58732269069 1105 0 0 0 0
86	4346751 31782 106 78915 5.5300087219 1112.58732269069 1105 440 440 486200 213928000
87	4378533 188314 106 78915 0.1 1112.5 11125 0 13200 4857600 25206720000
88	4566847 30677 106 78915 5.5300087219 1112.58732269069 1105 62 62 68510 4247620
89	4597524 29572 106 78915 5.5300087219 1112.58732269069 1105 0 0 0 0
90	4627096 29572 106 78915 5.5300087219 1112.58732269069 1105 0 0 0 0
91	4656668 30677 109 78920 5.5300092679 1112.58732323669 1105 62 62 68510 4247620
92	4687345 30677 109 78920 5.5300092679 1112.58732323669 1105 55 55 60775 3342625
93	4718022 31782 112 78923 5.5400097079 1112.59732367669 1105 440 440 486200 213928000
94	4749804 188338 112 78923 0.1 1112.5 11125 0 13200 4857600 24896960000
95	4938142 29572 112 78923 5.5400097079 1112.59732367669 1105 0 0 0 0
96	4967714 31782 112 78923 5.5400097079 1112.59732367669 1105 440 440 486200 213928000
97	4999496 188338 112 78923 0.1 1112.5 11125 0 13200 4857600 24896960000
98	5187834 30648 112 78836 5.5400097079 1110.87383664297 1104 62 62 68448 4243776
99	5218482 29544 112 78836 5.5400097079 1110.87383664297 1104 0 0 0 0
100	5248026 30648 112 78836 5.5400097079 1110.87383664297 1104 0 0 0 0
101	5278674 31753 114 78838 5.5400102539 1110.87383718897 1104 62 62 68448 4243776
102	5310427 31753 114 78838 5.5400102539 1110.87383718897 1104 55 55 60720 3339600
103	5342180 283 115 77221 5.5400102539 1091.96467090968 10 28 28 280 7840
104	5342463 32036 116 78840 5.5400102539 1110.87383718897 1114 28 55 61000 3347440
105	5374499 33150 117 78841 5.5400102539 1110.87383718897 1114 368 584 648416 377880064
106	5407649 199219 117 78799 0.1 1110.8 11108 0 17520 6472480 44288627200
107	5606868 30922 117 78841 5.5400102539 1110.87383718897 1114 0 0 0 0
108	5637790 33150 117 78841 5.5400102539 1110.87383718897 1114 368 584 648416 377880064
109	5670940 199219 117 78799 0.1 1110.8 11108 0 17520 6472480 44288627200
110	5870159 32036 117 78841 5.5400102539 1110.87383718897 1114 46 73 81052 5904376
111	5902195 30922 117 78841 5.5400102539 1110.87383718897 1114 0 0 0 0
112	5933117 30922 117 78841 5.5400102539 1110.87383718897 1114 0 0 0 0
113	5964039 32034 118 78842 5.5400108299 1110.87383783697 1114 64 73 81232 5924176
114	5996073 32034 119 78843 5.5400108799 1110.87383788697 1114 64 73 81232 5924176
115	6028107 32034 119 78843 5.5400108799 1110.87383788697 1114 64 73 81232 5924176
116	6060141 32034 120 78844 5.5400108799 1110.87383788697 1114 46 55 61180 3360760
117	6092175 283 121 77227 5.5400108799 1091.96467153568 10 28 28 280 7840
118	6092458 283 122 77228 5.5400108799 1091.96467153568 10 28 28 280 7840
119	6092741 293 123 77229 5.5400108799 1091.96467153568 10 368 368 3680 1354240
120	6093034 192883 123 77229 0.1 1091.9 10919 0 3680 33120 121881600
121	6285917 273 123 77229 5.5400108799 1091.96467153568 10 0 0 0 0
122	6286190 293 123 77229 5.5400108799 1091.96467153568 10 368 368 3680 1354240
123	6286483 192883 123 77229 0.1 1091.9 10919 0 3680 33120 121881600
124	6479366 283 123 77229 5.5400108799 1091.96467153568 10 46 46 460 21160
125	6479649 273 123 77229 5.5400108799 1091.96467153568 10 0 0 0 0
126	6479922 273 123 77229 5.5400108799 1091.96467153568 10 0 0 0 0
127	6480195 283 125 77231 5.5400114559 1091.96467211168 10 64 64 640 40960
128	6480478 283 126 77232 5.5400115059 1091.96467216168 10 64 64 640 40960
129	6480761 283 126 77232 5.5400115059 1091.96467216168 10 64 64 640 40960
130	6481044 283 127 77233 5.5400115059 1091.96467216168 10 46 46 460 21160
131	6481327 31751 136 78846 5.5400122039 1110.87383788697 1104 35 35 38640 1352400
132	6513078 4408 137 78856 5.5400122039 1111.35603801746 106 48.851314502486 97305.879442793 2410624.3039437 99249896072.968
133	6517486 4508 137 78856 5.5400122039 1111.35603801746 106 -91.780399689863 -66.118609178774 -7899.4722035439 591611.74394977
134	6521994 4386 137 78856 5.5400122039 1111.35603801746 106 5.5400122039 1111.3560380175 60378.138693509 45639736.333102
135	6526380 32661 149 78872 6.5300048667 1112.14603334675 1174 0 3 1151 2279
136	6559041 3013 152 78856 6.7400122039 1111.35603801746 105 0 105 5553 391261
137	6562054 3222 165 78878 7.87201139982 1112.56780046619 116 7 7 812 5684
138	6565276 3338 165 78878 7.87201139982 1112.56780046619 116 14 14 1624 22736
139	6568614 3338 166 78879 7.87201139982 1112.56780046619 116 80 80 9280 742400
140	6571952 196660 166 78879 0.1 1112.5 11125 0 1600 92000 74880000
141	6768612 3893 166 78879 7.87201139982 1112.56780046619 116 0 9.85203565616 165.98550010923 830.25693540048
142	6772505 3335 166 78879 7.87201139982 1112.56780046619 116 80 80 9280 742400
143	6775840 196655 166 78879 0.1 1112.5 11125 0 800 92000 73600000
144	6972495 43064 166 78893 7.87201139982 1112.58732046619 1009 -13.96195551544 0 -6757.3029813083 62354.62063259
145	7015559 12874 166 78893 7.87201139982 1112.58732046619 464 0 2 464 696
146	7028433 4804 166 78879 7.87201139982 1112.56780046619 173 0 3 81 109
147	7033237 4884 166 78879 7.87201139982 1112.56780046619 173 0 240 6480 697600
148	7038121 4731 217 76451 7.90153562715 1083.60893239342 114 15.560168593236 220814.50602777 4341962.1097956 317871871491.46
149	7042852 4851 217 76451 7.90153562715 1083.60893239342 114 -90.367405420227 -62.559723997794 -8235.0106193621 597755.99023819
150	7047703 4717 217 76451 7.90153562715 1083.60893239342 114 7.90153562715 1083.6089323934 64761.301012997 48755958.985128
151	7052420 2999 219 78807 7.95874504566 1110.85968020221 108 7 7 756 5292
152	7055419 3107 219 78807 7.95874504566 1110.85968020221 108 14 14 1512 21168
153	7058526 3107 220 78808 7.95874504566 1110.85968020221 108 80 80 8640 691200
154	7061633 196488 220 78808 0.1 1110.8 11108 0 800 85600 68480000
155	7258121 3454 220 78739 7.95874504566 1110.8247911442 107 0 13.91660115907 159.04551566556 1099.0766497568
156	7261575 3079 220 78739 7.95874504566 1110.8247911442 107 80 80 8560 684800
157	7264654 196486 220 78739 0.1 1110.8 11108 0 800 84800 67840000
158	7461140 42421 220 78917 7.95874504566 1112.58732291332 995 -13.368099508828 0 -6102.9051419294 53566.128865394
159	7503561 11892 220 78792 7.95874504566 1110.84431588334 428 0 2 428 642
160	7515453 4115 220 78808 7.95874504566 1110.85968020221 148 0 3 63 89
161	7519568 4177 220 78808 7.95874504566 1110.85968020221 148 0 240 5040 569600
162	7523745 4497 270 78867 7.98826918813 1112.05431506846 108 5.8278855370006 385316.58121165 8237561.1905276 1159519112384.8
163	7528242 4615 270 78867 7.98826918813 1112.05431506846 108 -84.473873866902 -60.141823017221 -7470.8847511849 519303.86153201
164	7532857 4497 270 78867 7.98826918813 1112.05431506846 108 7.98826918813 1112.0543150685 62801.3283721 46713447.247253
165	7537354 34487 282 76810 8.89153139982 1087.72652257246 1244 0 3 1210 2386
166	7571841 35137 284 78918 8.97826504566 1112.58732291332 1265 0 3 1263 2523
167	7606978 3225 285 78527 8.98560388484 1108.42800396548 116 7 7 812 5684
168	7610203 3341 285 78527 8.98560388484 1108.42800396548 116 14 14 1624 22736
169	7613544 3341 286 78528 8.98560388484 1108.42800396548 116 80 80 9280 742400
170	7616885 195964 286 78528 0.1 1108.4 11084 0 800 92000 73600000
171	7812849 3798 286 78777 8.98560388484 1110.84431351377 116 0 10.13531673079 174.63128401171 952.5873246982
172	7816647 3343 286 78777 8.98560388484 1110.84431351377 116 80 80 9280 742400
173	7819990 196416 286 78777 0.1 1110.8 11108 0 800 92000 73600000
174	8016406 43951 286 78883 8.98560388484 1112.56780118176 1030 -13.812753247998 0 -7695.1919199842 73089.048745632
175	8060357 12912 286 78883 8.98560388484 1112.56780118176 464 0 2 464 696
176	8073269 4554 286 78777 8.98560388484 1110.84431351377 164 0 3 72 104
177	8077823 4624 286 78777 8.98560388484 1110.84431351377 164 0 240 5760 665600
178	8082447 4750 340 78868 9.01512819875 1112.07383788697 114 29.458685159849 157375.92193211 5365621.4403191 428656224841.74
179	8087197 4865 340 78868 9.01512819875 1112.07383788697 114 -101.30786641084 -64.030617127134 -8153.8520497783 587012.24335176
180	8092062 4735 340 78868 9.01512819875 1112.07383788697 114 9.01512819875 1112.073837887 65452.606566755 51080653.433207
181	8096797 3246 343 76451 9.10153562715 1083.60893239342 113 0 114 6497 498521
182	8100043 3084 344 78867 9.18826918813 1112.05431506846 107 0 106 5671 402641
183	8103127 2646 346 78530 9.23223131471 1108.56767169842 96 7 7 672 4704
184	8105773 2742 346 78530 9.23223131471 1108.56767169842 96 14 14 1344 18816
185	8108515 2742 347 78531 9.23223131471 1108.56767169842 96 80 80 7680 614400
186	8111257 195936 347 78531 0.1 1108.5 11085 0 1600 76000 62080000
187	8307193 3091 347 78531 9.23223131471 1108.56767169842 96 0 7.19601557904 106.42757391569 429.46366999296
188	8310284 2748 347 78531 9.23223131471 1108.56767169842 96 80 80 7680 614400
189	8313032 195910 347 78531 0.1 1108.5 11085 0 800 76000 60800000
190	8508942 38416 347 78908 9.23223131471 1112.58732207446 904 -10.522820034747 0 -5154.4338826916 38101.662289378
191	8547358 10606 347 78543 9.23223131471 1108.58719169842 384 0 2 384 576
192	8557964 3661 347 78531 9.23223131471 1108.56767169842 133 0 2 47 57
193	8561625 3708 347 78531 9.23223131471 1108.56767169842 133 0 160 3760 364800
194	8565333 4021 400 78661 9.26175466985 1109.79719510387 97 33.258749454127 1887258.084359 43273920.496806 35338788530524
[...]
55	75975324 270 480223 548496 6779.76399861391 7745.94666119916 9 28 28 252 7056
56	75975594 32968 471824 550166 6659.00734336703 7775.23089928932 1103 28 55 60422 3316406
57	76008562 34071 471825 550167 6659.00734336703 7775.23089928932 1103 368 584 642208 374334080
58	76042633 213148 471825 550167 6658.2 7775.2 11171 0 17520 6425760 43060825600
59	76255781 31865 471825 550167 6659.00734336703 7775.23089928932 1103 0 0 0 0
60	76287646 34071 471825 550167 6659.00734336703 7775.23089928932 1103 368 584 642208 374334080
61	76321717 213148 471825 550167 6658.2 7775.2 11171 0 17520 6425760 43060825600
62	76534865 32968 471825 550167 6659.00734336703 7775.23089928932 1103 46 73 80276 5848970
63	76567833 31865 471825 550167 6659.00734336703 7775.23089928932 1103 0 0 0 0
64	76599698 31865 471825 550167 6659.00734336703 7775.23089928932 1103 0 0 0 0
65	76631563 32970 471830 550172 6659.00734401503 7775.23089993732 1103 64 73 80438 5866790
66	76664533 32970 471831 550173 6659.00734406503 7775.23089998732 1103 64 73 80438 5866790
67	76697503 32970 471831 550173 6659.00734406503 7775.23089998732 1103 64 73 80438 5866790
68	76730473 32970 471832 550174 6659.00734406503 7775.23089998732 1103 46 55 60584 3328394
69	76763443 270 480231 548506 6779.76399923991 7745.94666182516 9 28 28 252 7056
70	76763713 270 480232 548507 6779.76399923991 7745.94666182516 9 28 28 252 7056
71	76763983 279 480233 548508 6779.76399923991 7745.94666182516 9 368 368 3312 1218816
72	76764262 204535 480233 548508 6658.2 7745.9 10878 0 3680 33120 121881600
73	76968797 261 480233 548508 6779.76399923991 7745.94666182516 9 0 0 0 0
74	76969058 279 480233 548508 6779.76399923991 7745.94666182516 9 368 368 3312 1218816
75	76969337 204535 480233 548508 6658.2 7745.9 10878 0 3680 33120 121881600
76	77173872 270 480233 548508 6779.76399923991 7745.94666182516 9 46 46 414 19044
77	77174142 261 480233 548508 6779.76399923991 7745.94666182516 9 0 0 0 0
78	77174403 261 480233 548508 6779.76399923991 7745.94666182516 9 0 0 0 0
79	77174664 270 480236 548510 6779.76399981591 7745.94666240116 9 64 64 576 36864
80	77174934 270 480237 548511 6779.76399986591 7745.94666245116 9 64 64 576 36864
81	77175204 270 480237 548511 6779.76399986591 7745.94666245116 9 64 64 576 36864
82	77175474 270 480238 548512 6779.76399986591 7745.94666245116 9 46 46 414 19044
83	77175744 33794 471834 550176 6659.00734406503 7775.23089998732 1094 440 440 481360 211798400
84	77209538 213081 471834 550176 6658.2 7775.2 11171 0 13200 4813600 24122560000
85	77422619 31606 471834 550176 6659.00734406503 7775.23089998732 1094 0 0 0 0
86	77454225 33763 471834 550085 6659.00734406503 7772.49677956688 1093 440 440 480920 211604800
87	77487988 212552 471834 550085 6658.2 7772.4 11143 0 13200 4809200 24103200000
88	77700540 32670 471834 550085 6659.00734406503 7772.49677956688 1093 62 62 67766 4201492
89	77733210 31577 471834 550085 6659.00734406503 7772.49677956688 1093 0 0 0 0
90	77764787 31577 471834 550085 6659.00734406503 7772.49677956688 1093 0 0 0 0
91	77796364 32670 471841 550090 6659.00734461103 7772.49678011288 1093 62 62 67766 4201492
92	77829034 32670 471841 550090 6659.00734461103 7772.49678011288 1093 55 55 60115 3306325
93	77861704 33763 471846 550094 6659.01734505103 7772.50678055288 1093 440 440 480920 211604800
94	77895467 212541 471846 550094 6658.2 7772.5 11144 0 13200 4809200 24490400000
95	78108008 31577 471846 550094 6659.01734505103 7772.50678055288 1093 0 0 0 0
96	78139585 33763 471846 550094 6659.01734505103 7772.50678055288 1093 440 440 480920 211604800
97	78173348 212541 471846 550094 6658.2 7772.5 11144 0 13200 4809200 24490400000
98	78385889 32670 471846 550094 6659.01734505103 7772.50678055288 1093 62 62 67766 4201492
99	78418559 31577 471846 550094 6659.01734505103 7772.50678055288 1093 0 0 0 0
100	78450136 32670 471846 550094 6659.01734505103 7772.50678055288 1093 0 0 0 0
101	78482806 33761 471848 550096 6659.01734559703 7772.50678109888 1093 62 62 67766 4201492
102	78516567 33761 471848 550096 6659.01734559703 7772.50678109888 1093 55 55 60115 3306325
103	78550328 279 480256 548530 6779.77400209591 7745.95666468116 9 28 28 252 7056
104	78550607 34071 471781 550098 6658.11502732344 7772.50678109888 1103 28 55 60422 3316406
105	78584678 35174 471782 550099 6658.11502732344 7772.50678109888 1103 368 584 642208 374334080
106	78619852 223762 471851 550099 6658.2 7772.5 11144 0 17520 6419920 43708832000
107	78843614 32968 471782 550099 6658.11502732344 7772.50678109888 1103 0 0 0 0
108	78876582 35174 471782 550099 6658.11502732344 7772.50678109888 1103 368 584 642208 374334080
109	78911756 223762 471851 550099 6658.2 7772.5 11144 0 17520 6419920 43708832000
110	79135518 34071 471782 550099 6658.11502732344 7772.50678109888 1103 46 73 80276 5848970
111	79169589 32968 471782 550099 6658.11502732344 7772.50678109888 1103 0 0 0 0
112	79202557 32968 471782 550099 6658.11502732344 7772.50678109888 1103 0 0 0 0
113	79235525 34073 471784 550100 6658.11502797144 7772.50678174688 1103 64 73 80438 5866790
114	79269598 34073 471785 550101 6658.11502802144 7772.50678179688 1103 64 73 80438 5866790
115	79303671 34073 471785 550101 6658.11502802144 7772.50678179688 1103 64 73 80438 5866790
116	79337744 34073 471786 550102 6658.11502802144 7772.50678179688 1103 46 55 60584 3328394
117	79371817 279 480262 548536 6779.77400272191 7745.95666530716 9 28 28 252 7056
118	79372096 279 480263 548537 6779.77400272191 7745.95666530716 9 28 28 252 7056
119	79372375 288 480264 548538 6779.77400272191 7745.95666530716 9 368 368 3312 1218816
120	79372663 226877 471775 548538 6600.3 7745.9 11457 0 3680 33120 121881600
121	79599540 300 471775 548538 6658.11502669744 7745.95666530716 10 0 0 0 0
122	79599840 320 471775 548538 6658.11502669744 7745.95666530716 10 368 368 3680 1354240
123	79600160 239334 471775 548538 6537.4 7745.9 12086 0 3680 36800 135424000
124	79839494 310 471775 548538 6658.11502669744 7745.95666530716 10 46 46 460 21160
125	79839804 300 471775 548538 6658.11502669744 7745.95666530716 10 0 0 0 0
126	79840104 300 471775 548538 6658.11502669744 7745.95666530716 10 0 0 0 0
127	79840404 310 471777 548540 6658.11502727344 7745.95666588316 10 64 64 640 40960
128	79840714 310 471778 548541 6658.11502732344 7745.95666593316 10 64 64 640 40960
129	79841024 310 471778 548541 6658.11502732344 7745.95666593316 10 64 64 640 40960
130	79841334 310 471779 548542 6658.11502732344 7745.95666593316 10 46 46 460 21160
131	79841644 33794 471788 550104 6658.11502802144 7772.50678179688 1094 35 35 38290 1340150
132	79875438 4417 471864 549505 6659.31502802144 7765.41090379796 101 4.0477618923816 543334.55019884 9749147.2515399 2136641528131.3
133	79879855 4525 471864 549505 6659.31502802144 7765.41090379796 101 -90.923176500965 -58.649326776579 -6981.0659612102 486304.74687
134	79884380 4415 471864 549505 6659.31502802144 7765.41090379796 101 6659.3150280214 7765.410903798 726974.66364276 5243218570.762
135	79888795 31184 471861 549766 6659.10502173614 7768.20089966992 1044 0 3 1002 1962
136	79919979 3218 471864 549505 6659.31502802144 7765.41090379796 101 643 743 69993 48590999
137	79923197 3468 472273 550146 6664.52446127528 7775.21137862937 116 7 7 812 5684
138	79926665 3584 472273 550146 6664.52446127528 7775.21137862937 116 14 14 1624 22736
139	79930249 3584 472274 550147 6664.52446127528 7775.21137862937 116 80 80 9280 742400
140	79933833 225456 472274 550147 6637.8 7775.2 11375 0 800 92800 74240000
141	80159289 4110 472274 550147 6664.52446127528 7775.21137862937 116 0 17.97241388805 263.69407109804 2177.4158485164
142	80163399 3589 472274 550147 6664.52446127528 7775.21137862937 116 80 80 9280 742400
143	80166988 225238 472274 550147 6638.9 7775.2 11364 0 800 92800 74240000
144	80392226 46122 472274 550159 6664.52446127528 7775.23089862937 1030 -95.67330182447 -81.085401011443 -90751.783130833 8013796.8359322
145	80438348 13888 472274 550159 6664.52446127528 7775.23089862937 464 0 2 464 696
146	80452236 5055 472274 550147 6664.52446127528 7775.21137862937 169 0 4 103 189
147	80457291 5149 472274 550147 6664.52446127528 7775.21137862937 169 0 320 8240 1209600
148	80462440 5030 472353 549690 6665.7539852091 7767.1553578253 115 1.4980100832914 625837.85590502 14503672.104088 3637570261959.8
149	80467470 5147 472353 549690 6665.7539852091 7767.1553578253 115 -89.256771960059 -58.035381706347 -7756.632281776 526683.06292531
150	80472617 5030 472353 549690 6665.7539852091 7767.1553578253 115 6665.7539852091 7767.1553578253 834679.52635944 6069434948.0771
151	80477647 3623 472359 548574 6666.03635928988 7747.43475399796 121 7 7 847 5929
152	80481270 3744 472359 548574 6666.03635928988 7747.43475399796 121 14 14 1694 23716
153	80485014 3744 472360 548575 6666.03635928988 7747.43475399796 121 80 80 9680 774400
154	80488758 216100 472360 548575 6657.3 7747.4 10902 0 1600 96800 80000000
155	80704858 4326 472074 548801 6662.08550417441 7749.94665890035 122 0 25.70180685265 291.01661385678 3089.7325284675
156	80709184 3778 472074 548801 6662.08550417441 7749.94665890035 122 80 80 9760 780800
157	80712962 216838 472074 548801 6656.1 7749.9 10939 0 800 97600 78080000
158	80929800 50600 471859 549103 6659.08550417441 7756.06550131347 1131 -105.85043987438 -90.64884164854 -110623.90314067 10843468.897603
159	80980400 14620 472074 548899 6662.08550417441 7752.06550131347 488 0 2 488 732
160	80995020 5301 472074 548801 6662.08550417441 7749.94665890035 177 0 6 117 291
161	81000321 5395 472074 548801 6662.08550417441 7749.94665890035 177 0 480 9360 1862400
162	81005716 5208 472149 548875 6663.31502934011 7751.17618412713 119 5.9502195809809 65513.876531186 1635982.9293192 41647234521.892
163	81010924 5333 472149 548875 6663.31502934011 7751.17618412713 119 -91.674981515006 -67.836667021053 -9133.5013604576 704014.7473553
164	81016257 5210 472149 548875 6663.31502934011 7751.17618412713 119 6663.3150293401 7751.1761841271 863380.47766177 6274293785.4882
165	81021467 38293 472350 549906 6665.54398127528 7769.94535423454 1280 0 3 1255 2485
166	81059760 43103 471859 549103 6659.08550417441 7756.06550131347 1440 0 3 1431 2853
167	81102863 3673 473590 548720 6679.46613340857 7748.69093958816 123 7 7 861 6027
168	81106536 3796 473590 548720 6679.46613340857 7748.69093958816 123 14 14 1722 24108
169	81110332 3796 473591 548721 6679.46613340857 7748.69093958816 123 80 80 9840 787200
170	81114128 218720 473591 548721 6645.3 7748.6 11034 0 800 98400 78720000
171	81332848 4362 473591 548721 6679.46613340857 7748.69093958816 123 0 9.19509432149 189.50968781794 878.56207054218
172	81337210 3793 473591 548721 6679.46613340857 7748.69093958816 123 80 80 9840 787200
173	81341003 218720 473591 548721 6645.3 7748.6 11034 0 800 98400 78720000
174	81559723 48144 473591 549004 6679.46613340857 7752.71045958816 1076 -92.46011303544 -77.193010992417 -91934.262379771 7876791.3133842
175	81607867 14680 473591 548734 6679.46613340857 7748.71045958816 492 0 2 492 738
176	81622547 5403 473591 548721 6679.46613340857 7748.69093958816 181 0 2 82 106
177	81627950 5485 473591 548721 6679.46613340857 7748.69093958816 181 0 160 6560 678400
178	81633435 5393 473744 548798 6680.69565672461 7749.92046280569 123 4.0115731396418 4633504.9823347 97594044.714217 1.664243632443e+14
179	81638828 5509 473744 548798 6680.69565672461 7749.92046280569 123 -73.133982337837 -49.340903656526 -7310.1535721433 437818.52770749
180	81644337 5394 473744 548798 6680.69565672461 7749.92046280569 123 6680.6956567246 7749.9204628057 883884.99423049 6363257874.0165
181	81649731 3666 472353 549690 6665.7539852091 7767.1553578253 115 650 764 81305 57609365
182	81653397 3795 472149 548875 6663.31502934011 7751.17618412713 119 700 821 90622 69156420
183	81657192 3491 471870 549508 6659.79429422675 7765.6663051571 117 7 7 819 5733
184	81660683 3608 471870 549508 6659.79429422675 7765.6663051571 117 14 14 1638 22932
185	81664291 3608 471871 549509 6659.79429422675 7765.6663051571 117 80 80 9360 748800
186	81667899 222708 471871 549509 6642.1 7765.6 11236 0 800 93600 74880000
187	81890607 4117 471871 549509 6659.79429422675 7765.6663051571 117 0 11.44774528243 183.68437890095 1008.7354210204
188	81894724 3610 471871 549509 6659.79429422675 7765.6663051571 117 80 80 9360 748800
189	81898334 222094 471871 549509 6645.2 7765.6 11205 0 800 93600 74880000
190	82120428 47235 471871 549901 6659.79429422675 7769.6858251571 1056 -95.420251421016 -80.340098138896 -92175.226847863 8065168.2245898
191	82167663 13970 471871 549521 6659.79429422675 7765.6858251571 468 0 2 468 702
192	82181633 5047 471871 549509 6659.79429422675 7765.6663051571 169 0 3 76 108
193	82186680 5121 471871 549509 6659.79429422675 7765.6663051571 169 0 240 6080 691200
194	82191801 4998 472055 549684 6661.02381880615 7766.89582968291 114 1.610914439547 126978.77343566 3463667.0171575 189177911523.93
195	82196799 5110 472055 549684 6661.02381880615 7766.89582968291 114 -94.912326535522 -64.96268872353 -8355.3532890004 615504.14535648
196	82201909 4986 472055 549684 6661.02381880615 7766.89582968291 114 6661.0238188061 7766.8958296829 822928.80075847 5951781902.8258
197	82206895 3198 471791 550053 6658.14967947779 7772.4772581339 107 7 7 749 5243
198	82210093 3305 471791 550053 6658.14967947779 7772.4772581339 107 14 14 1498 20972
199	82213398 3305 471792 550054 6658.14967947779 7772.4772581339 107 80 80 8560 684800
200	82216703 221319 471792 550054 6655.8 7772.4 11167 0 1600 85600 69760000
201	82438022 3589 471893 550054 6659.81381520824 7772.4772581339 107 0 8.05974366007 94.79907534906 373.71026425654
202	82441611 3303 471893 550054 6659.81381520824 7772.4772581339 107 80 80 8560 684800
203	82444914 221320 471893 550054 6655.8 7772.4 11167 0 800 85600 68480000
204	82666234 44795 471800 550137 6658.79517709968 7774.4967781339 1002 -94.442973494805 -83.477890542731 -89873.560151736 8070998.9205936
205	82711029 12782 471893 550066 6659.81381520824 7772.4967781339 428 0 2 428 642
206	82723811 4182 471792 550054 6658.14967947779 7772.4772581339 140 0 2 39 45
207	82727993 4221 471792 550054 6658.14967947779 7772.4772581339 140 0 160 3120 288000
208	82732214 4636 472056 550126 6661.04333907957 7773.70678179688 106 1828.9997474878 608629.83605489 11120634.815832 2417441168831.4
209	82736850 4738 472056 550126 6661.04333907957 7773.70678179688 106 -83.377863544824 -58.156467616124 -7234.3968927085 496559.72414188
210	82741588 4632 472056 550126 6661.04333907957 7773.70678179688 106 6661.0433390796 7773.7067817969 760916.37586734 5473830221.3924
211	82746220 39300 473739 549004 6680.48565340857 7752.71045958816 1316 0 3 1276 2512
212	82785520 3927 473744 548798 6680.69565672461 7749.92046280569 123 629 751 84870 58715362
213	82789447 39489 471997 549901 6660.81381422675 7769.6858251571 1320 0 3 1299 2577
214	82828936 3637 472055 549684 6661.02381880615 7766.89582968291 114 654 770 81213 57986161
215	82832573 37418 471800 550137 6658.79517709968 7774.4967781339 1252 0 3 1244 2480
216	82869991 3378 472056 550126 6661.04333907957 7773.70678179688 106 671 777 76758 55684810
217	82873369 2927 471998 549843 6660.82511588923 7769.57095794971 98 7 7 686 4802
218	82876296 3025 471998 549843 6660.82511588923 7769.57095794971 98 14 14 1372 19208
219	82879321 3025 471999 549844 6660.82511588923 7769.57095794971 98 80 80 7840 627200
220	82882346 221264 471999 549844 6653.1 7769.5 11165 0 800 78400 62720000
221	83103610 3412 471999 549844 6660.82511588923 7769.57095794971 98 0 21.59758428365 217.95142225257 2220.8471899884
222	83107022 3027 471999 549844 6660.82511588923 7769.57095794971 98 80 80 7840 627200
223	83110049 220886 471999 549844 6655 7769.5 11146 0 800 78400 62720000
224	83330935 40379 471799 550122 6658.77565814662 7773.59047794971 903 -107.26977881571 -96.4433109263 -92016.935059448 9386497.8942674
225	83371314 11720 471999 549856 6660.82511588923 7769.59047794971 392 0 2 392 588
226	83383034 4124 471999 549844 6660.82511588923 7769.57095794971 138 0 5 92 204
227	83387158 4202 471999 549844 6660.82511588923 7769.57095794971 138 0 400 7360 1305600
228	83391360 4166 472073 549974 6662.05463986636 7770.80048209245 95 458.85248361589 349503.08032849 5933508.2818426 747400611205.33
229	83395526 4256 472073 549974 6662.05463986636 7770.80048209245 95 -89.383269132617 -60.56548992268 -6706.8200288347 476388.4432787
230	83399782 4166 472073 549974 6662.05463986636 7770.80048209245 95 6662.0546398664 7770.8004820924 687230.92377893 4981135299.2504
231	83403948 33667 471799 550122 6658.77565814662 7773.59047794971 1126 0 3 1112 2210
232	83437615 3033 472073 549974 6662.05463986636 7770.80048209245 95 710 807 72011 54661251
233	83440648 3143 472438 549995 6667.56228833275 7772.13953615139 105 7 7 735 5145
234	83443791 3248 472438 549995 6667.56228833275 7772.13953615139 105 14 14 1470 20580
235	83447039 3248 472439 549996 6667.56228833275 7772.13953615139 105 80 80 8400 672000
236	83450287 224127 472439 549996 6641.3 7772.1 11309 0 1600 84000 68480000
237	83674414 3508 472439 549999 6667.56228833275 7772.33573607312 104 0 8.31988707795 104.42463385969 484.42833823149
238	83677922 3217 472439 549999 6667.56228833275 7772.33573607312 104 80 80 8320 665600
239	83681139 224166 472439 549999 6641.3 7772.3 11311 0 800 83200 66560000
240	83905305 41676 472439 550136 6667.56228833275 7774.47725869355 931 -95.051617724203 -84.251213492221 -83721.870810296 7538210.7397739
241	83946981 12448 472439 550056 6667.56228833275 7772.47725869355 416 0 2 416 624
242	83959429 4130 472439 549999 6667.56228833275 7772.33573607312 138 0 2 50 66
243	83963559 4180 472439 549999 6667.56228833275 7772.33573607312 138 0 160 4000 422400
244	83967739 4379 472734 550121 6668.79181272477 7773.56526028512 100 183.6739834344 89474.03615721 1935996.4697196 77048816596.811
245	83972118 4480 472734 550121 6668.79181272477 7773.56526028512 100 -93.359523551316 -66.483029712711 -7591.578029595 579618.6298296
246	83976598 4384 472734 550121 6668.79181272477 7773.56526028512 100 6668.7918127248 7773.5652602851 720631.46661471 5202291543.7834
247	83980982 3111 472331 549753 6664.66335211548 7767.43358840334 104 7 7 728 5096
248	83984093 3215 472331 549753 6664.66335211548 7767.43358840334 104 14 14 1456 20384
249	83987308 3215 472332 549754 6664.66335211548 7767.43358840334 104 80 80 8320 665600
250	83990523 220740 472332 549754 6653.7 7767.4 11138 0 800 83200 66560000
251	84211263 3668 471803 549908 6658.98782271464 7769.96763617019 106 0 10.572246769 140.40763540043 748.41768350495
252	84214931 3277 471803 549908 6658.98782271464 7769.96763617019 106 80 80 8480 678400
253	84218208 221558 471803 549908 6652.1 7769.9 11179 0 800 84800 67840000
254	84439766 41186 471803 550134 6658.98782271464 7774.33573763517 920 -97.92741630028 -86.092793394788 -84542.061701362 7778844.7209964
255	84480952 12676 471803 550010 6658.98782271464 7772.33573763517 424 0 2 424 636
256	84493628 4367 471803 549908 6658.98782271464 7769.96763617019 146 0 2 57 73
257	84497995 4424 471803 549908 6658.98782271464 7769.96763617019 146 0 160 4560 467200
258	84502419 4642 471989 549980 6660.21734629503 7771.19715956071 106 2.0757892214951 2779149.362483 38823232.176824 37361891901506
259	84507061 4747 471989 549980 6660.21734629503 7771.19715956071 106 -82.144716599388 -51.560881118916 -6716.0893020343 429488.65882245
260	84511808 4638 471989 549980 6660.21734629503 7771.19715956071 106 6660.217346295 7771.1971595607 760995.58914397 5474303620.8167
261	84516446 3531 472849 549694 6671.73790080961 7767.21254445509 118 7 7 826 5782
262	84519977 3649 472849 549694 6671.73790080961 7767.21254445509 118 14 14 1652 23128
263	84523626 3649 472850 549695 6671.73790080961 7767.21254445509 118 80 80 9440 755200
264	84527275 221262 472850 549695 6651 7767.2 11163 0 800 94400 75520000
265	84748537 4192 472850 549695 6671.73790080961 7767.21254445509 118 0 15.74975730008 279.08091185686 2211.7870729432
266	84752729 3648 472850 549695 6671.73790080961 7767.21254445509 118 80 80 9440 755200
