version 3
run General-0-20230501-22:40:59-68504
attr configname General
attr datetime 20230501-22:40:59
attr datetimef 20230501-224059
attr experiment General
attr inifile n10-gw1-noADR.ini
attr iterationvars "$0=\"avg\""
attr iterationvarsd avg
attr iterationvarsf avg-
attr measurement "$0=\"avg\""
attr network loraSimulation.LoRaNetwork
attr processid 68504
attr repetition 0
attr replication #0
attr resultdir results
attr runnumber 0
attr seedset 0
config image-path ../../../../../Downloads/omnetpp-6.0.1/samples/inet4.4/images
config network loraSimulation.LoRaNetwork
config output-vector-file ../results/n10-gw1-noADR-s0.ini.vec
config record-eventlog true
config **.maxTransmissionDuration 4s
config **.energyDetection -110dBm
config **.vector-recording true
config rng-class cMersenneTwister
config **.loRaGW[*].numUdpApps 1
config **.loRaGW[0].packetForwarder.localPort 2000
config **.loRaGW[0].packetForwarder.destPort 1000
config **.loRaGW[0].packetForwarder.destAddresses "\"networkServer\""
config **.loRaGW[0].packetForwarder.indexNumber 0
config **.networkServer.numApps 1
config **.networkServer.**.evaluateADRinServer false
config **.networkServer.app[0].typename NetworkServerApp
config **.networkServer.app[0].destAddresses "\"loRaGW[0]\""
config **.networkServer.app[0].destPort 2000
config **.networkServer.app[0].localPort 1000
config **.networkServer.app[0].adrMethod "\"avg\""
config **.loRaNodes[0].app[0].numberOfPacketsToSend 550
config **.loRaNodes[1].app[0].numberOfPacketsToSend 570
config **.loRaNodes[2].app[0].numberOfPacketsToSend 590
config **.loRaNodes[3].app[0].numberOfPacketsToSend 610
config **.loRaNodes[4].app[0].numberOfPacketsToSend 630
config **.loRaNodes[5].app[0].numberOfPacketsToSend 650
config **.loRaNodes[6].app[0].numberOfPacketsToSend 670
config **.loRaNodes[7].app[0].numberOfPacketsToSend 690
config **.loRaNodes[8].app[0].numberOfPacketsToSend 710
config **.loRaNodes[9].app[0].numberOfPacketsToSend 730
config sim-time-limit 10d
config simtime-resolution -11
config repeat 1
config **.timeToFirstPacket exponential(1000s)
config **.timeToNextPacket exponential(1000s)
config **.alohaChannelModel false
config **.loRaNodes[*].**.initFromDisplayString false
config **.loRaNodes[*].**.evaluateADRinNode false
config **.loRaNodes[*].**initialLoRaBW "125 kHz"
config **.loRaNodes[*].**initialLoRaCR 4
config **.loRaNodes[*].numApps 1
config **.loRaNodes[*].app[0].typename SimpleLoRaApp
config **.LoRaGWNic.radio.iAmGateway true
config **.loRaGW[*].**.initFromDisplayString false
config **.loRaNodes[*].LoRaNic.radio.energyConsumer.typename LoRaEnergyConsumer
config **.loRaNodes[*].**.energySourceModule "\"^.IdealEpEnergyStorage\""
config **.loRaNodes[*].LoRaNic.radio.energyConsumer.configFile "xmldoc(\"../energyConsumptionParameters.xml\")"
config **.sigma 3.57
config LoRaNetwork.**.radio.separateTransmissionParts false
config LoRaNetwork.**.radio.separateReceptionParts false
config **.ipv4Delayer.config "xmldoc(\"../cloudDelays.xml\")"
config **.radio.radioMediumModule "\"LoRaMedium\""
config **.LoRaMedium.pathLoss.typename NakagamiFading
config **.minInterferenceTime 0s
config **.displayAddresses false
config **.numberOfNodes 10
config **.numberOfGateways 1
config output-scalar-file ../results/n10-gw1-noADR-s0.ini.sca
config **.loRaGW[0].**.initialX -466m
config **.loRaGW[0].**.initialY 453m
config **.loRaGW[0].**.initialZ 100m
config **.loRaNodes[0].**.initialX -304.52156108273766m
config **.loRaNodes[0].**.initialY 371.6134448465055m
config **.loRaNodes[0].**.initialZ 23m
config **.loRaNodes[1].**.initialX -490.069254154322m
config **.loRaNodes[1].**.initialY 218.16444607650294m
config **.loRaNodes[1].**.initialZ 23m
config **.loRaNodes[2].**.initialX -195.2116354190786m
config **.loRaNodes[2].**.initialY 147.33327780419074m
config **.loRaNodes[2].**.initialZ 19m
config **.loRaNodes[3].**.initialX -826.016524055903m
config **.loRaNodes[3].**.initialY 31.35696931360557m
config **.loRaNodes[3].**.initialZ 22m
config **.loRaNodes[4].**.initialX -364.93909694406386m
config **.loRaNodes[4].**.initialY 433.4378240604358m
config **.loRaNodes[4].**.initialZ 23m
config **.loRaNodes[5].**.initialX -578.9059389930152m
config **.loRaNodes[5].**.initialY 63.82588789400968m
config **.loRaNodes[5].**.initialZ 19m
config **.loRaNodes[6].**.initialX -534.809727985328m
config **.loRaNodes[6].**.initialY 268.8693326263983m
config **.loRaNodes[6].**.initialZ 23m
config **.loRaNodes[7].**.initialX -381.3320065556517m
config **.loRaNodes[7].**.initialY 146.66610824442768m
config **.loRaNodes[7].**.initialZ 23m
config **.loRaNodes[8].**.initialX -834.2487712408622m
config **.loRaNodes[8].**.initialY 196.25904552752453m
config **.loRaNodes[8].**.initialZ 19m
config **.loRaNodes[9].**.initialX -823.3678880051875m
config **.loRaNodes[9].**.initialY 745.5619831521817m
config **.loRaNodes[9].**.initialZ 23m
config **.LoRaMedium.obstacleLoss.typename DielectricObstacleLoss
config *.visualizer.canvasVisualizer.sceneVisualizer.viewAngle "\"isometric\""

par LoRaNetwork.networkServer.ethg$o[0].channel typename "\"inet.node.ethernet.Eth1G\""
par LoRaNetwork.networkServer.ethg$o[0].channel disabled false
attr mutable ""
par LoRaNetwork.networkServer.ethg$o[0].channel delay 5e-08s
attr mutable ""
attr unit s
par LoRaNetwork.networkServer.ethg$o[0].channel datarate 1e+09bps
attr mutable ""
attr unit bps
par LoRaNetwork.networkServer.ethg$o[0].channel ber 0
attr mutable ""
par LoRaNetwork.networkServer.ethg$o[0].channel per 0
attr mutable ""
par LoRaNetwork.networkServer.ethg$o[0].channel length 10m
attr unit m
par LoRaNetwork.nsRouter.ethg$o[0].channel typename "\"inet.node.ethernet.Eth1G\""
par LoRaNetwork.nsRouter.ethg$o[0].channel disabled false
attr mutable ""
par LoRaNetwork.nsRouter.ethg$o[0].channel delay 5e-08s
attr mutable ""
attr unit s
par LoRaNetwork.nsRouter.ethg$o[0].channel datarate 1e+09bps
attr mutable ""
attr unit bps
par LoRaNetwork.nsRouter.ethg$o[0].channel ber 0
attr mutable ""
par LoRaNetwork.nsRouter.ethg$o[0].channel per 0
attr mutable ""
par LoRaNetwork.nsRouter.ethg$o[0].channel length 10m
attr unit m
par LoRaNetwork.nsRouter.pppg$o[0].channel typename "\"inet.node.ethernet.Eth1G\""
par LoRaNetwork.nsRouter.pppg$o[0].channel disabled false
attr mutable ""
par LoRaNetwork.nsRouter.pppg$o[0].channel delay 5e-08s
attr mutable ""
attr unit s
par LoRaNetwork.nsRouter.pppg$o[0].channel datarate 1e+09bps
attr mutable ""
attr unit bps
par LoRaNetwork.nsRouter.pppg$o[0].channel ber 0
attr mutable ""
par LoRaNetwork.nsRouter.pppg$o[0].channel per 0
attr mutable ""
par LoRaNetwork.nsRouter.pppg$o[0].channel length 10m
attr unit m
par LoRaNetwork.internetCloud.pppg$o[0].channel typename "\"inet.node.ethernet.Eth1G\""
par LoRaNetwork.internetCloud.pppg$o[0].channel disabled false
attr mutable ""
par LoRaNetwork.internetCloud.pppg$o[0].channel delay 5e-08s
attr mutable ""
attr unit s
par LoRaNetwork.internetCloud.pppg$o[0].channel datarate 1e+09bps
attr mutable ""
attr unit bps
par LoRaNetwork.internetCloud.pppg$o[0].channel ber 0
attr mutable ""
par LoRaNetwork.internetCloud.pppg$o[0].channel per 0
attr mutable ""
par LoRaNetwork.internetCloud.pppg$o[0].channel length 10m
attr unit m
par LoRaNetwork.internetCloud.pppg$o[1].channel typename "\"inet.node.ethernet.Eth1G\""
par LoRaNetwork.internetCloud.pppg$o[1].channel disabled false
attr mutable ""
par LoRaNetwork.internetCloud.pppg$o[1].channel delay 5e-08s
attr mutable ""
attr unit s
par LoRaNetwork.internetCloud.pppg$o[1].channel datarate 1e+09bps
attr mutable ""
attr unit bps
par LoRaNetwork.internetCloud.pppg$o[1].channel ber 0
attr mutable ""
par LoRaNetwork.internetCloud.pppg$o[1].channel per 0
attr mutable ""
par LoRaNetwork.internetCloud.pppg$o[1].channel length 10m
attr unit m
par LoRaNetwork.gwRouter[0].pppg$o[0].channel typename "\"inet.node.ethernet.Eth1G\""
par LoRaNetwork.gwRouter[0].pppg$o[0].channel disabled false
attr mutable ""
par LoRaNetwork.gwRouter[0].pppg$o[0].channel delay 5e-08s
attr mutable ""
attr unit s
par LoRaNetwork.gwRouter[0].pppg$o[0].channel datarate 1e+09bps
attr mutable ""
attr unit bps
par LoRaNetwork.gwRouter[0].pppg$o[0].channel ber 0
attr mutable ""
par LoRaNetwork.gwRouter[0].pppg$o[0].channel per 0
attr mutable ""
par LoRaNetwork.gwRouter[0].pppg$o[0].channel length 10m
attr unit m
par LoRaNetwork.gwRouter[0].ethg$o[0].channel typename "\"inet.node.ethernet.Eth1G\""
par LoRaNetwork.gwRouter[0].ethg$o[0].channel disabled false
attr mutable ""
par LoRaNetwork.gwRouter[0].ethg$o[0].channel delay 5e-08s
attr mutable ""
attr unit s
par LoRaNetwork.gwRouter[0].ethg$o[0].channel datarate 1e+09bps
attr mutable ""
attr unit bps
par LoRaNetwork.gwRouter[0].ethg$o[0].channel ber 0
attr mutable ""
par LoRaNetwork.gwRouter[0].ethg$o[0].channel per 0
attr mutable ""
par LoRaNetwork.gwRouter[0].ethg$o[0].channel length 10m
attr unit m
par LoRaNetwork.loRaGW[0].ethg$o[0].channel typename "\"inet.node.ethernet.Eth1G\""
par LoRaNetwork.loRaGW[0].ethg$o[0].channel disabled false
attr mutable ""
par LoRaNetwork.loRaGW[0].ethg$o[0].channel delay 5e-08s
attr mutable ""
attr unit s
par LoRaNetwork.loRaGW[0].ethg$o[0].channel datarate 1e+09bps
attr mutable ""
attr unit bps
par LoRaNetwork.loRaGW[0].ethg$o[0].channel ber 0
attr mutable ""
par LoRaNetwork.loRaGW[0].ethg$o[0].channel per 0
attr mutable ""
par LoRaNetwork.loRaGW[0].ethg$o[0].channel length 10m
attr unit m
par LoRaNetwork.visualizer.canvasVisualizer.sceneVisualizer typename "\"inet.visualizer.canvas.scene.SceneCanvasVisualizer\""
par LoRaNetwork.visualizer.canvasVisualizer.sceneVisualizer visualizationTargetModule "\"^.^.^\""
par LoRaNetwork.visualizer.canvasVisualizer.sceneVisualizer visualizationSubjectModule "\"^.^.^\""
par LoRaNetwork.visualizer.canvasVisualizer.sceneVisualizer tags "\"\""
par LoRaNetwork.visualizer.canvasVisualizer.sceneVisualizer physicalEnvironmentModule "\"physicalEnvironment\""
par LoRaNetwork.visualizer.canvasVisualizer.sceneVisualizer networkNodeVisualizerModule "\"^.networkNodeVisualizer\""
par LoRaNetwork.visualizer.canvasVisualizer.sceneVisualizer axisLength "nan m"
attr mutable ""
attr unit m
par LoRaNetwork.visualizer.canvasVisualizer.sceneVisualizer animationSpeed 0
par LoRaNetwork.visualizer.canvasVisualizer.sceneVisualizer sceneMinX "nan m"
attr unit m
par LoRaNetwork.visualizer.canvasVisualizer.sceneVisualizer sceneMinY "nan m"
attr unit m
par LoRaNetwork.visualizer.canvasVisualizer.sceneVisualizer sceneMinZ "nan m"
attr unit m
par LoRaNetwork.visualizer.canvasVisualizer.sceneVisualizer sceneMaxX "nan m"
attr unit m
par LoRaNetwork.visualizer.canvasVisualizer.sceneVisualizer sceneMaxY "nan m"
attr unit m
par LoRaNetwork.visualizer.canvasVisualizer.sceneVisualizer sceneMaxZ "nan m"
attr unit m
par LoRaNetwork.visualizer.canvasVisualizer.sceneVisualizer zIndex 0
par LoRaNetwork.visualizer.canvasVisualizer.sceneVisualizer viewAngle "\"isometric\""
attr mutable ""
par LoRaNetwork.visualizer.canvasVisualizer.sceneVisualizer viewScale "\"1 1\""
attr mutable ""
par LoRaNetwork.visualizer.canvasVisualizer.sceneVisualizer viewTranslation "\"0 0\""
attr mutable ""
par LoRaNetwork.visualizer.canvasVisualizer.sceneVisualizer descriptionFigure "\"\""
par LoRaNetwork.visualizer.canvasVisualizer.physicalEnvironmentVisualizer typename "\"inet.visualizer.canvas.environment.PhysicalEnvironmentCanvasVisualizer\""
par LoRaNetwork.visualizer.canvasVisualizer.physicalEnvironmentVisualizer visualizationTargetModule "\"^.^.^\""
par LoRaNetwork.visualizer.canvasVisualizer.physicalEnvironmentVisualizer visualizationSubjectModule "\"^.^.^\""
par LoRaNetwork.visualizer.canvasVisualizer.physicalEnvironmentVisualizer tags "\"\""
par LoRaNetwork.visualizer.canvasVisualizer.physicalEnvironmentVisualizer physicalEnvironmentModule "\"physicalEnvironment\""
par LoRaNetwork.visualizer.canvasVisualizer.physicalEnvironmentVisualizer displayObjects true
par LoRaNetwork.visualizer.canvasVisualizer.physicalEnvironmentVisualizer zIndex 0
par LoRaNetwork.visualizer.canvasVisualizer.networkNodeVisualizer typename "\"inet.visualizer.canvas.scene.NetworkNodeCanvasVisualizer\""
par LoRaNetwork.visualizer.canvasVisualizer.networkNodeVisualizer visualizationTargetModule "\"^.^.^\""
par LoRaNetwork.visualizer.canvasVisualizer.networkNodeVisualizer visualizationSubjectModule "\"^.^.^\""
par LoRaNetwork.visualizer.canvasVisualizer.networkNodeVisualizer tags "\"\""
par LoRaNetwork.visualizer.canvasVisualizer.networkNodeVisualizer nodeFilter "\"*\""
attr mutable ""
par LoRaNetwork.visualizer.canvasVisualizer.networkNodeVisualizer annotationSpacing 4
par LoRaNetwork.visualizer.canvasVisualizer.networkNodeVisualizer placementPenalty 10
par LoRaNetwork.visualizer.canvasVisualizer.networkNodeVisualizer zIndex 0
par LoRaNetwork.visualizer.canvasVisualizer.networkConnectionVisualizer typename "\"inet.visualizer.canvas.scene.NetworkConnectionCanvasVisualizer\""
par LoRaNetwork.visualizer.canvasVisualizer.networkConnectionVisualizer visualizationTargetModule "\"^.^.^\""
par LoRaNetwork.visualizer.canvasVisualizer.networkConnectionVisualizer visualizationSubjectModule "\"^.^.^\""
par LoRaNetwork.visualizer.canvasVisualizer.networkConnectionVisualizer tags "\"\""
par LoRaNetwork.visualizer.canvasVisualizer.networkConnectionVisualizer displayNetworkConnections true
par LoRaNetwork.visualizer.canvasVisualizer.networkConnectionVisualizer nodeFilter "\"\""
attr mutable ""
par LoRaNetwork.visualizer.canvasVisualizer.networkConnectionVisualizer lineColor "\"black\""
par LoRaNetwork.visualizer.canvasVisualizer.networkConnectionVisualizer lineStyle "\"solid\""
par LoRaNetwork.visualizer.canvasVisualizer.networkConnectionVisualizer lineWidth 1
par LoRaNetwork.visualizer.canvasVisualizer.networkConnectionVisualizer zIndex 0
par LoRaNetwork.visualizer.canvasVisualizer.mobilityVisualizer typename "\"inet.visualizer.canvas.mobility.MobilityCanvasVisualizer\""
par LoRaNetwork.visualizer.canvasVisualizer.mobilityVisualizer visualizationTargetModule "\"^.^.^\""
par LoRaNetwork.visualizer.canvasVisualizer.mobilityVisualizer visualizationSubjectModule "\"^.^.^\""
par LoRaNetwork.visualizer.canvasVisualizer.mobilityVisualizer tags "\"\""
par LoRaNetwork.visualizer.canvasVisualizer.mobilityVisualizer networkNodeVisualizerModule "\"^.networkNodeVisualizer\""
par LoRaNetwork.visualizer.canvasVisualizer.mobilityVisualizer displayMobility true
par LoRaNetwork.visualizer.canvasVisualizer.mobilityVisualizer animationSpeed 0
par LoRaNetwork.visualizer.canvasVisualizer.mobilityVisualizer moduleFilter "\"**.mobility\""
attr mutable ""
par LoRaNetwork.visualizer.canvasVisualizer.mobilityVisualizer displayPositions false
par LoRaNetwork.visualizer.canvasVisualizer.mobilityVisualizer positionCircleRadius 4
par LoRaNetwork.visualizer.canvasVisualizer.mobilityVisualizer positionCircleLineWidth 1
par LoRaNetwork.visualizer.canvasVisualizer.mobilityVisualizer positionCircleLineColor "\"dark\""
attr enum light,dark
par LoRaNetwork.visualizer.canvasVisualizer.mobilityVisualizer positionCircleFillColor "\"dark\""
attr enum light,dark
par LoRaNetwork.visualizer.canvasVisualizer.mobilityVisualizer displayOrientations false
par LoRaNetwork.visualizer.canvasVisualizer.mobilityVisualizer orientationPieRadius 32
par LoRaNetwork.visualizer.canvasVisualizer.mobilityVisualizer orientationPieSize 0.2
par LoRaNetwork.visualizer.canvasVisualizer.mobilityVisualizer orientationPieOpacity 0.25
par LoRaNetwork.visualizer.canvasVisualizer.mobilityVisualizer orientationLineColor "\"black\""
par LoRaNetwork.visualizer.canvasVisualizer.mobilityVisualizer orientationLineStyle "\"solid\""
par LoRaNetwork.visualizer.canvasVisualizer.mobilityVisualizer orientationLineWidth 1
par LoRaNetwork.visualizer.canvasVisualizer.mobilityVisualizer orientationFillColor "\"blue\""
par LoRaNetwork.visualizer.canvasVisualizer.mobilityVisualizer displayVelocities false
par LoRaNetwork.visualizer.canvasVisualizer.mobilityVisualizer velocityArrowScale 1
par LoRaNetwork.visualizer.canvasVisualizer.mobilityVisualizer velocityLineColor "\"black\""
par LoRaNetwork.visualizer.canvasVisualizer.mobilityVisualizer velocityLineStyle "\"solid\""
par LoRaNetwork.visualizer.canvasVisualizer.mobilityVisualizer velocityLineWidth 1
par LoRaNetwork.visualizer.canvasVisualizer.mobilityVisualizer displayMovementTrails false
par LoRaNetwork.visualizer.canvasVisualizer.mobilityVisualizer movementTrailLineColor "\"dark\""
attr enum light,dark
par LoRaNetwork.visualizer.canvasVisualizer.mobilityVisualizer movementTrailLineStyle "\"solid\""
par LoRaNetwork.visualizer.canvasVisualizer.mobilityVisualizer movementTrailLineWidth 1
par LoRaNetwork.visualizer.canvasVisualizer.mobilityVisualizer trailLength 100
par LoRaNetwork.visualizer.canvasVisualizer.mobilityVisualizer zIndex 0
par LoRaNetwork.visualizer.canvasVisualizer.statisticVisualizer typename "\"inet.visualizer.canvas.common.StatisticCanvasVisualizer\""
par LoRaNetwork.visualizer.canvasVisualizer.statisticVisualizer visualizationTargetModule "\"^.^.^\""
par LoRaNetwork.visualizer.canvasVisualizer.statisticVisualizer visualizationSubjectModule "\"^.^.^\""
par LoRaNetwork.visualizer.canvasVisualizer.statisticVisualizer tags "\"\""
par LoRaNetwork.visualizer.canvasVisualizer.statisticVisualizer networkNodeVisualizerModule "\"^.networkNodeVisualizer\""
par LoRaNetwork.visualizer.canvasVisualizer.statisticVisualizer displayStatistics true
par LoRaNetwork.visualizer.canvasVisualizer.statisticVisualizer signalName "\"\""
par LoRaNetwork.visualizer.canvasVisualizer.statisticVisualizer statisticName "\"\""
par LoRaNetwork.visualizer.canvasVisualizer.statisticVisualizer statisticUnit "\"\""
par LoRaNetwork.visualizer.canvasVisualizer.statisticVisualizer statisticExpression "\"\""
par LoRaNetwork.visualizer.canvasVisualizer.statisticVisualizer sourceFilter "\"**\""
attr mutable ""
par LoRaNetwork.visualizer.canvasVisualizer.statisticVisualizer format "\"%n: %v %u\""
attr mutable ""
par LoRaNetwork.visualizer.canvasVisualizer.statisticVisualizer unit "\"\""
par LoRaNetwork.visualizer.canvasVisualizer.statisticVisualizer font "\"<default>\""
par LoRaNetwork.visualizer.canvasVisualizer.statisticVisualizer textColor "\"black\""
par LoRaNetwork.visualizer.canvasVisualizer.statisticVisualizer backgroundColor "\"white\""
par LoRaNetwork.visualizer.canvasVisualizer.statisticVisualizer opacity 1
par LoRaNetwork.visualizer.canvasVisualizer.statisticVisualizer placementHint "\"top\""
par LoRaNetwork.visualizer.canvasVisualizer.statisticVisualizer placementPriority 0
par LoRaNetwork.visualizer.canvasVisualizer.statisticVisualizer zIndex 10
par LoRaNetwork.visualizer.canvasVisualizer.statisticVisualizer propertyName "\"\""
par LoRaNetwork.visualizer.canvasVisualizer.statisticVisualizer propertyIndex "\"\""
par LoRaNetwork.visualizer.canvasVisualizer.infoVisualizer typename "\"inet.visualizer.canvas.common.InfoCanvasVisualizer\""
par LoRaNetwork.visualizer.canvasVisualizer.infoVisualizer visualizationTargetModule "\"^.^.^\""
par LoRaNetwork.visualizer.canvasVisualizer.infoVisualizer visualizationSubjectModule "\"^.^.^\""
par LoRaNetwork.visualizer.canvasVisualizer.infoVisualizer tags "\"\""
par LoRaNetwork.visualizer.canvasVisualizer.infoVisualizer networkNodeVisualizerModule "\"^.networkNodeVisualizer\""
par LoRaNetwork.visualizer.canvasVisualizer.infoVisualizer displayInfos true
par LoRaNetwork.visualizer.canvasVisualizer.infoVisualizer modules "\"\""
attr mutable ""
par LoRaNetwork.visualizer.canvasVisualizer.infoVisualizer format "\"%t\""
attr mutable ""
par LoRaNetwork.visualizer.canvasVisualizer.infoVisualizer font "\"<default>\""
par LoRaNetwork.visualizer.canvasVisualizer.infoVisualizer textColor "\"black\""
par LoRaNetwork.visualizer.canvasVisualizer.infoVisualizer backgroundColor "\"white\""
par LoRaNetwork.visualizer.canvasVisualizer.infoVisualizer opacity 1
par LoRaNetwork.visualizer.canvasVisualizer.infoVisualizer placementHint "\"top\""
par LoRaNetwork.visualizer.canvasVisualizer.infoVisualizer placementPriority 0
par LoRaNetwork.visualizer.canvasVisualizer.infoVisualizer zIndex 10
par LoRaNetwork.visualizer.canvasVisualizer.energyStorageVisualizer typename "\"inet.visualizer.canvas.power.EnergyStorageCanvasVisualizer\""
par LoRaNetwork.visualizer.canvasVisualizer.energyStorageVisualizer visualizationTargetModule "\"^.^.^\""
par LoRaNetwork.visualizer.canvasVisualizer.energyStorageVisualizer visualizationSubjectModule "\"^.^.^\""
par LoRaNetwork.visualizer.canvasVisualizer.energyStorageVisualizer tags "\"\""
par LoRaNetwork.visualizer.canvasVisualizer.energyStorageVisualizer networkNodeVisualizerModule "\"^.networkNodeVisualizer\""
par LoRaNetwork.visualizer.canvasVisualizer.energyStorageVisualizer displayEnergyStorages false
par LoRaNetwork.visualizer.canvasVisualizer.energyStorageVisualizer energyStorageFilter "\"**\""
par LoRaNetwork.visualizer.canvasVisualizer.energyStorageVisualizer color "\"green\""
par LoRaNetwork.visualizer.canvasVisualizer.energyStorageVisualizer width 8
par LoRaNetwork.visualizer.canvasVisualizer.energyStorageVisualizer height 24
par LoRaNetwork.visualizer.canvasVisualizer.energyStorageVisualizer spacing 2
par LoRaNetwork.visualizer.canvasVisualizer.energyStorageVisualizer placementHint "\"right\""
par LoRaNetwork.visualizer.canvasVisualizer.energyStorageVisualizer placementPriority 0
par LoRaNetwork.visualizer.canvasVisualizer.energyStorageVisualizer zIndex 10
par LoRaNetwork.visualizer.canvasVisualizer.mediumVisualizer typename "\"inet.visualizer.canvas.physicallayer.MediumCanvasVisualizer\""
par LoRaNetwork.visualizer.canvasVisualizer.mediumVisualizer visualizationTargetModule "\"^.^.^\""
par LoRaNetwork.visualizer.canvasVisualizer.mediumVisualizer visualizationSubjectModule "\"^.^.^\""
par LoRaNetwork.visualizer.canvasVisualizer.mediumVisualizer tags "\"\""
par LoRaNetwork.visualizer.canvasVisualizer.mediumVisualizer mediumModule "\"radioMedium\""
par LoRaNetwork.visualizer.canvasVisualizer.mediumVisualizer networkNodeVisualizerModule "\"^.networkNodeVisualizer\""
par LoRaNetwork.visualizer.canvasVisualizer.mediumVisualizer nodeFilter "\"*\""
attr mutable ""
par LoRaNetwork.visualizer.canvasVisualizer.mediumVisualizer interfaceFilter "\"*\""
attr mutable ""
par LoRaNetwork.visualizer.canvasVisualizer.mediumVisualizer packetFilter "(omnetpp::cValueHolder)holder: \"*\""
attr mutable ""
par LoRaNetwork.visualizer.canvasVisualizer.mediumVisualizer displaySignals false
par LoRaNetwork.visualizer.canvasVisualizer.mediumVisualizer signalColor "\"dark\""
attr enum light,dark
par LoRaNetwork.visualizer.canvasVisualizer.mediumVisualizer signalPropagationAnimationSpeed "nan "
attr mutable ""
par LoRaNetwork.visualizer.canvasVisualizer.mediumVisualizer signalPropagationAnimationTime 1s
attr unit s
par LoRaNetwork.visualizer.canvasVisualizer.mediumVisualizer signalPropagationAdditionalTime 0s
attr unit s
par LoRaNetwork.visualizer.canvasVisualizer.mediumVisualizer signalTransmissionAnimationSpeed "nan "
attr mutable ""
par LoRaNetwork.visualizer.canvasVisualizer.mediumVisualizer signalTransmissionAnimationTime 1s
attr unit s
par LoRaNetwork.visualizer.canvasVisualizer.mediumVisualizer signalAnimationSpeedChangeTimeMode "\"realTime\""
attr enum realTime,animationTime,simulationTime
par LoRaNetwork.visualizer.canvasVisualizer.mediumVisualizer signalAnimationSpeedChangeTime 1s
attr unit s
par LoRaNetwork.visualizer.canvasVisualizer.mediumVisualizer displaySignalDepartures false
par LoRaNetwork.visualizer.canvasVisualizer.mediumVisualizer signalDepartureImage "\"misc/signal_departure.png\""
par LoRaNetwork.visualizer.canvasVisualizer.mediumVisualizer signalDeparturePlacementHint "\"topCenter\""
par LoRaNetwork.visualizer.canvasVisualizer.mediumVisualizer signalDeparturePlacementPriority 1
par LoRaNetwork.visualizer.canvasVisualizer.mediumVisualizer displaySignalArrivals false
par LoRaNetwork.visualizer.canvasVisualizer.mediumVisualizer signalArrivalImage "\"misc/signal_arrival.png\""
par LoRaNetwork.visualizer.canvasVisualizer.mediumVisualizer signalArrivalPlacementHint "\"topCenter\""
par LoRaNetwork.visualizer.canvasVisualizer.mediumVisualizer signalArrivalPlacementPriority -1
par LoRaNetwork.visualizer.canvasVisualizer.mediumVisualizer displayCommunicationRanges false
par LoRaNetwork.visualizer.canvasVisualizer.mediumVisualizer communicationRangeLineColor "\"blue\""
par LoRaNetwork.visualizer.canvasVisualizer.mediumVisualizer communicationRangeLineStyle "\"solid\""
par LoRaNetwork.visualizer.canvasVisualizer.mediumVisualizer communicationRangeLineWidth 1
par LoRaNetwork.visualizer.canvasVisualizer.mediumVisualizer displayInterferenceRanges false
par LoRaNetwork.visualizer.canvasVisualizer.mediumVisualizer interferenceRangeLineColor "\"gray\""
par LoRaNetwork.visualizer.canvasVisualizer.mediumVisualizer interferenceRangeLineStyle "\"solid\""
par LoRaNetwork.visualizer.canvasVisualizer.mediumVisualizer interferenceRangeLineWidth 1
par LoRaNetwork.visualizer.canvasVisualizer.mediumVisualizer autoPowerAxis true
par LoRaNetwork.visualizer.canvasVisualizer.mediumVisualizer signalMinPower "inf dBmW"
attr unit dBmW
par LoRaNetwork.visualizer.canvasVisualizer.mediumVisualizer signalMaxPower 0dBmW
attr unit dBmW
par LoRaNetwork.visualizer.canvasVisualizer.mediumVisualizer signalMinPowerDensity "inf dBmWpMHz"
attr unit dBmWpMHz
par LoRaNetwork.visualizer.canvasVisualizer.mediumVisualizer signalMaxPowerDensity "-inf dBmWpMHz"
attr unit dBmWpMHz
par LoRaNetwork.visualizer.canvasVisualizer.mediumVisualizer autoTimeAxis true
par LoRaNetwork.visualizer.canvasVisualizer.mediumVisualizer signalMinTime 0s
attr unit s
par LoRaNetwork.visualizer.canvasVisualizer.mediumVisualizer signalMaxTime 0s
attr unit s
par LoRaNetwork.visualizer.canvasVisualizer.mediumVisualizer autoFrequencyAxis true
par LoRaNetwork.visualizer.canvasVisualizer.mediumVisualizer signalMinFrequency "inf Hz"
attr unit Hz
par LoRaNetwork.visualizer.canvasVisualizer.mediumVisualizer signalMaxFrequency "-inf Hz"
attr unit Hz
par LoRaNetwork.visualizer.canvasVisualizer.mediumVisualizer displayMainPowerDensityMap false
par LoRaNetwork.visualizer.canvasVisualizer.mediumVisualizer mainPowerDensityMapPixmapDensity 1
par LoRaNetwork.visualizer.canvasVisualizer.mediumVisualizer mainPowerDensityMapMinX 0
par LoRaNetwork.visualizer.canvasVisualizer.mediumVisualizer mainPowerDensityMapMaxX "nan "
par LoRaNetwork.visualizer.canvasVisualizer.mediumVisualizer mainPowerDensityMapMinY 0
par LoRaNetwork.visualizer.canvasVisualizer.mediumVisualizer mainPowerDensityMapMaxY "nan "
par LoRaNetwork.visualizer.canvasVisualizer.mediumVisualizer mainPowerDensityMapZ 0
par LoRaNetwork.visualizer.canvasVisualizer.mediumVisualizer mainPowerDensityMapFigureXTickCount 3
par LoRaNetwork.visualizer.canvasVisualizer.mediumVisualizer mainPowerDensityMapFigureYTickCount 3
par LoRaNetwork.visualizer.canvasVisualizer.mediumVisualizer displayPowerDensityMaps false
par LoRaNetwork.visualizer.canvasVisualizer.mediumVisualizer powerDensityMapMode "\"auto\""
attr enum total,signal,auto
par LoRaNetwork.visualizer.canvasVisualizer.mediumVisualizer powerDensityMapPixelMode "\"mean\""
attr enum sample,partition,mean
par LoRaNetwork.visualizer.canvasVisualizer.mediumVisualizer powerDensityMapApproximationSize 10
par LoRaNetwork.visualizer.canvasVisualizer.mediumVisualizer powerDensityMapCenterFrequency "nan Hz"
attr mutable ""
attr unit Hz
par LoRaNetwork.visualizer.canvasVisualizer.mediumVisualizer powerDensityMapBandwidth 0Hz
attr mutable ""
attr unit Hz
par LoRaNetwork.visualizer.canvasVisualizer.mediumVisualizer powerDensityMapFigureWidth 200
par LoRaNetwork.visualizer.canvasVisualizer.mediumVisualizer powerDensityMapFigureHeight 120
par LoRaNetwork.visualizer.canvasVisualizer.mediumVisualizer powerDensityMapPixmapWidth 200
par LoRaNetwork.visualizer.canvasVisualizer.mediumVisualizer powerDensityMapPixmapHeight 120
par LoRaNetwork.visualizer.canvasVisualizer.mediumVisualizer powerDensityMapZ 0
par LoRaNetwork.visualizer.canvasVisualizer.mediumVisualizer powerDensityMapFigureXTickCount 3
par LoRaNetwork.visualizer.canvasVisualizer.mediumVisualizer powerDensityMapFigureYTickCount 3
par LoRaNetwork.visualizer.canvasVisualizer.mediumVisualizer displaySpectrums false
par LoRaNetwork.visualizer.canvasVisualizer.mediumVisualizer spectrumMode "\"auto\""
attr enum total,signal,auto
par LoRaNetwork.visualizer.canvasVisualizer.mediumVisualizer spectrumFigureWidth 200
par LoRaNetwork.visualizer.canvasVisualizer.mediumVisualizer spectrumFigureHeight 120
par LoRaNetwork.visualizer.canvasVisualizer.mediumVisualizer spectrumFigureXTickCount 3
par LoRaNetwork.visualizer.canvasVisualizer.mediumVisualizer spectrumFigureYTickCount 5
par LoRaNetwork.visualizer.canvasVisualizer.mediumVisualizer spectrumFigureInterpolationSize 5
par LoRaNetwork.visualizer.canvasVisualizer.mediumVisualizer spectrumPlacementHint "\"bottomCenter\""
par LoRaNetwork.visualizer.canvasVisualizer.mediumVisualizer spectrumPlacementPriority -1
par LoRaNetwork.visualizer.canvasVisualizer.mediumVisualizer displaySpectrograms false
par LoRaNetwork.visualizer.canvasVisualizer.mediumVisualizer spectrogramMode "\"auto\""
attr enum total,signal,auto
par LoRaNetwork.visualizer.canvasVisualizer.mediumVisualizer spectrogramPixelMode "\"mean\""
attr enum sample,partition,mean
par LoRaNetwork.visualizer.canvasVisualizer.mediumVisualizer spectrogramFigureWidth 200
par LoRaNetwork.visualizer.canvasVisualizer.mediumVisualizer spectrogramFigureHeight 120
par LoRaNetwork.visualizer.canvasVisualizer.mediumVisualizer spectrogramPixmapWidth 200
par LoRaNetwork.visualizer.canvasVisualizer.mediumVisualizer spectrogramPixmapHeight 120
par LoRaNetwork.visualizer.canvasVisualizer.mediumVisualizer spectrogramFigureXTickCount 3
par LoRaNetwork.visualizer.canvasVisualizer.mediumVisualizer spectrogramFigureYTickCount 5
par LoRaNetwork.visualizer.canvasVisualizer.mediumVisualizer spectrogramPlacementHint "\"bottomCenter\""
par LoRaNetwork.visualizer.canvasVisualizer.mediumVisualizer spectrogramPlacementPriority -1
par LoRaNetwork.visualizer.canvasVisualizer.mediumVisualizer zIndex 0
par LoRaNetwork.visualizer.canvasVisualizer.mediumVisualizer signalShape "\"ring\""
attr enum ring,sphere
par LoRaNetwork.visualizer.canvasVisualizer.mediumVisualizer signalOpacity 0.5
par LoRaNetwork.visualizer.canvasVisualizer.mediumVisualizer signalRingCount 20
par LoRaNetwork.visualizer.canvasVisualizer.mediumVisualizer signalRingSize 50m
attr unit m
par LoRaNetwork.visualizer.canvasVisualizer.mediumVisualizer signalFadingDistance 50m
attr unit m
par LoRaNetwork.visualizer.canvasVisualizer.mediumVisualizer signalFadingFactor 1.2
par LoRaNetwork.visualizer.canvasVisualizer.mediumVisualizer signalWaveCount 20
par LoRaNetwork.visualizer.canvasVisualizer.mediumVisualizer signalWaveLength 50m
attr unit m
par LoRaNetwork.visualizer.canvasVisualizer.mediumVisualizer signalWaveWidth 10m
attr unit m
par LoRaNetwork.visualizer.canvasVisualizer.mediumVisualizer signalWaveFadingAnimationSpeedFactor 1
par LoRaNetwork.visualizer.canvasVisualizer.mediumVisualizer displayCommunicationHeat false
par LoRaNetwork.visualizer.canvasVisualizer.obstacleLossVisualizer typename "\"inet.visualizer.canvas.physicallayer.TracingObstacleLossCanvasVisualizer\""
par LoRaNetwork.visualizer.canvasVisualizer.obstacleLossVisualizer visualizationTargetModule "\"^.^.^\""
par LoRaNetwork.visualizer.canvasVisualizer.obstacleLossVisualizer visualizationSubjectModule "\"^.^.^\""
par LoRaNetwork.visualizer.canvasVisualizer.obstacleLossVisualizer tags "\"\""
par LoRaNetwork.visualizer.canvasVisualizer.obstacleLossVisualizer displayIntersections false
par LoRaNetwork.visualizer.canvasVisualizer.obstacleLossVisualizer intersectionLineColor "\"red\""
par LoRaNetwork.visualizer.canvasVisualizer.obstacleLossVisualizer intersectionLineStyle "\"solid\""
par LoRaNetwork.visualizer.canvasVisualizer.obstacleLossVisualizer intersectionLineWidth 1
par LoRaNetwork.visualizer.canvasVisualizer.obstacleLossVisualizer displayFaceNormalVectors false
par LoRaNetwork.visualizer.canvasVisualizer.obstacleLossVisualizer faceNormalLineColor "\"grey\""
par LoRaNetwork.visualizer.canvasVisualizer.obstacleLossVisualizer faceNormalLineStyle "\"solid\""
par LoRaNetwork.visualizer.canvasVisualizer.obstacleLossVisualizer faceNormalLineWidth 1
par LoRaNetwork.visualizer.canvasVisualizer.obstacleLossVisualizer fadeOutMode "\"realTime\""
attr enum realTime,animationTime,simulationTime
par LoRaNetwork.visualizer.canvasVisualizer.obstacleLossVisualizer fadeOutTime 1s
attr unit s
par LoRaNetwork.visualizer.canvasVisualizer.obstacleLossVisualizer fadeOutAnimationSpeed 0
par LoRaNetwork.visualizer.canvasVisualizer.obstacleLossVisualizer zIndex 0
par LoRaNetwork.visualizer.canvasVisualizer.packetDropVisualizer typename "\"inet.visualizer.canvas.common.PacketDropCanvasVisualizer\""
par LoRaNetwork.visualizer.canvasVisualizer.packetDropVisualizer visualizationTargetModule "\"^.^.^\""
par LoRaNetwork.visualizer.canvasVisualizer.packetDropVisualizer visualizationSubjectModule "\"^.^.^\""
par LoRaNetwork.visualizer.canvasVisualizer.packetDropVisualizer tags "\"\""
par LoRaNetwork.visualizer.canvasVisualizer.packetDropVisualizer displayPacketDrops false
par LoRaNetwork.visualizer.canvasVisualizer.packetDropVisualizer nodeFilter "\"*\""
attr mutable ""
par LoRaNetwork.visualizer.canvasVisualizer.packetDropVisualizer interfaceFilter "\"*\""
attr mutable ""
par LoRaNetwork.visualizer.canvasVisualizer.packetDropVisualizer packetFilter "(omnetpp::cValueHolder)holder: \"*\""
attr mutable ""
par LoRaNetwork.visualizer.canvasVisualizer.packetDropVisualizer detailsFilter "\"*\""
attr mutable ""
par LoRaNetwork.visualizer.canvasVisualizer.packetDropVisualizer icon "\"msg/packet_s\""
par LoRaNetwork.visualizer.canvasVisualizer.packetDropVisualizer iconTintAmount 1
par LoRaNetwork.visualizer.canvasVisualizer.packetDropVisualizer iconTintColor "\"dark\""
par LoRaNetwork.visualizer.canvasVisualizer.packetDropVisualizer labelFormat "\"%n\""
attr mutable ""
par LoRaNetwork.visualizer.canvasVisualizer.packetDropVisualizer labelFont "\"<default>\""
par LoRaNetwork.visualizer.canvasVisualizer.packetDropVisualizer labelColor "\"black\""
par LoRaNetwork.visualizer.canvasVisualizer.packetDropVisualizer fadeOutMode "\"realTime\""
attr enum realTime,animationTime,simulationTime
par LoRaNetwork.visualizer.canvasVisualizer.packetDropVisualizer fadeOutTime 1s
attr unit s
par LoRaNetwork.visualizer.canvasVisualizer.packetDropVisualizer fadeOutAnimationSpeed 0
par LoRaNetwork.visualizer.canvasVisualizer.packetDropVisualizer zIndex 10
par LoRaNetwork.visualizer.canvasVisualizer.packetDropVisualizer dx 32
par LoRaNetwork.visualizer.canvasVisualizer.packetDropVisualizer dy 64
par LoRaNetwork.visualizer.canvasVisualizer.packetFlowVisualizer typename "\"inet.visualizer.canvas.flow.PacketFlowCanvasVisualizer\""
par LoRaNetwork.visualizer.canvasVisualizer.packetFlowVisualizer visualizationTargetModule "\"^.^.^\""
par LoRaNetwork.visualizer.canvasVisualizer.packetFlowVisualizer visualizationSubjectModule "\"^.^.^\""
par LoRaNetwork.visualizer.canvasVisualizer.packetFlowVisualizer tags "\"\""
par LoRaNetwork.visualizer.canvasVisualizer.packetFlowVisualizer displayRoutes false
par LoRaNetwork.visualizer.canvasVisualizer.packetFlowVisualizer startPathSignal "\"packetFlowStarted\""
par LoRaNetwork.visualizer.canvasVisualizer.packetFlowVisualizer extendPathSignal "\"packetReceivedFromLower\""
par LoRaNetwork.visualizer.canvasVisualizer.packetFlowVisualizer endPathSignal "\"packetFlowEnded\""
par LoRaNetwork.visualizer.canvasVisualizer.packetFlowVisualizer nodeFilter "\"*\""
attr mutable ""
par LoRaNetwork.visualizer.canvasVisualizer.packetFlowVisualizer packetFilter "(omnetpp::cValueHolder)holder: \"*\""
attr mutable ""
par LoRaNetwork.visualizer.canvasVisualizer.packetFlowVisualizer lineColor "\"dark\""
attr enum light,dark
par LoRaNetwork.visualizer.canvasVisualizer.packetFlowVisualizer lineStyle "\"dashed\""
par LoRaNetwork.visualizer.canvasVisualizer.packetFlowVisualizer lineWidth 3
par LoRaNetwork.visualizer.canvasVisualizer.packetFlowVisualizer lineSmooth false
par LoRaNetwork.visualizer.canvasVisualizer.packetFlowVisualizer lineShift 16
par LoRaNetwork.visualizer.canvasVisualizer.packetFlowVisualizer lineShiftMode "\"normal\""
par LoRaNetwork.visualizer.canvasVisualizer.packetFlowVisualizer lineContactSpacing 3
par LoRaNetwork.visualizer.canvasVisualizer.packetFlowVisualizer lineContactMode "\"rectangular\""
attr enum circular,rectangular
par LoRaNetwork.visualizer.canvasVisualizer.packetFlowVisualizer labelFormat "\"%L %p pk (%l)\""
par LoRaNetwork.visualizer.canvasVisualizer.packetFlowVisualizer labelFont "\"<default>, 8px\""
par LoRaNetwork.visualizer.canvasVisualizer.packetFlowVisualizer labelColor "\"\""
par LoRaNetwork.visualizer.canvasVisualizer.packetFlowVisualizer fadeOutMode "\"realTime\""
attr enum realTime,animationTime,simulationTime
par LoRaNetwork.visualizer.canvasVisualizer.packetFlowVisualizer fadeOutTime 0s
attr unit s
par LoRaNetwork.visualizer.canvasVisualizer.packetFlowVisualizer fadeOutAnimationSpeed 0
par LoRaNetwork.visualizer.canvasVisualizer.packetFlowVisualizer zIndex 4
par LoRaNetwork.visualizer.canvasVisualizer.queueVisualizer typename "\"inet.visualizer.canvas.common.QueueCanvasVisualizer\""
par LoRaNetwork.visualizer.canvasVisualizer.queueVisualizer visualizationTargetModule "\"^.^.^\""
par LoRaNetwork.visualizer.canvasVisualizer.queueVisualizer visualizationSubjectModule "\"^.^.^\""
par LoRaNetwork.visualizer.canvasVisualizer.queueVisualizer tags "\"\""
par LoRaNetwork.visualizer.canvasVisualizer.queueVisualizer networkNodeVisualizerModule "\"^.networkNodeVisualizer\""
par LoRaNetwork.visualizer.canvasVisualizer.queueVisualizer displayQueues false
par LoRaNetwork.visualizer.canvasVisualizer.queueVisualizer queueFilter "\"**\""
par LoRaNetwork.visualizer.canvasVisualizer.queueVisualizer color "\"blue\""
par LoRaNetwork.visualizer.canvasVisualizer.queueVisualizer width 8
par LoRaNetwork.visualizer.canvasVisualizer.queueVisualizer height 24
par LoRaNetwork.visualizer.canvasVisualizer.queueVisualizer spacing 2
par LoRaNetwork.visualizer.canvasVisualizer.queueVisualizer placementHint "\"right\""
par LoRaNetwork.visualizer.canvasVisualizer.queueVisualizer placementPriority 0
par LoRaNetwork.visualizer.canvasVisualizer.queueVisualizer zIndex 10
par LoRaNetwork.visualizer.canvasVisualizer.gateScheduleVisualizer typename "\"inet.visualizer.canvas.common.GateScheduleCanvasVisualizer\""
par LoRaNetwork.visualizer.canvasVisualizer.gateScheduleVisualizer visualizationTargetModule "\"^.^.^\""
par LoRaNetwork.visualizer.canvasVisualizer.gateScheduleVisualizer visualizationSubjectModule "\"^.^.^\""
par LoRaNetwork.visualizer.canvasVisualizer.gateScheduleVisualizer tags "\"\""
par LoRaNetwork.visualizer.canvasVisualizer.gateScheduleVisualizer networkNodeVisualizerModule "\"^.networkNodeVisualizer\""
par LoRaNetwork.visualizer.canvasVisualizer.gateScheduleVisualizer displayGateSchedules false
par LoRaNetwork.visualizer.canvasVisualizer.gateScheduleVisualizer labelFormat "\"%i %D\""
par LoRaNetwork.visualizer.canvasVisualizer.gateScheduleVisualizer gateFilter "\"**\""
par LoRaNetwork.visualizer.canvasVisualizer.gateScheduleVisualizer width 100
par LoRaNetwork.visualizer.canvasVisualizer.gateScheduleVisualizer height 8
par LoRaNetwork.visualizer.canvasVisualizer.gateScheduleVisualizer spacing 2
par LoRaNetwork.visualizer.canvasVisualizer.gateScheduleVisualizer placementHint "\"right\""
par LoRaNetwork.visualizer.canvasVisualizer.gateScheduleVisualizer placementPriority 0
par LoRaNetwork.visualizer.canvasVisualizer.gateScheduleVisualizer displayDuration 0s
attr mutable ""
attr unit s
par LoRaNetwork.visualizer.canvasVisualizer.gateScheduleVisualizer currentTimePosition 50
par LoRaNetwork.visualizer.canvasVisualizer.gateScheduleVisualizer zIndex 10
par LoRaNetwork.visualizer.canvasVisualizer.radioVisualizer typename "\"inet.visualizer.canvas.physicallayer.RadioCanvasVisualizer\""
par LoRaNetwork.visualizer.canvasVisualizer.radioVisualizer visualizationTargetModule "\"^.^.^\""
par LoRaNetwork.visualizer.canvasVisualizer.radioVisualizer visualizationSubjectModule "\"^.^.^\""
par LoRaNetwork.visualizer.canvasVisualizer.radioVisualizer tags "\"\""
par LoRaNetwork.visualizer.canvasVisualizer.radioVisualizer networkNodeVisualizerModule "\"^.networkNodeVisualizer\""
par LoRaNetwork.visualizer.canvasVisualizer.radioVisualizer displayRadios false
par LoRaNetwork.visualizer.canvasVisualizer.radioVisualizer displayRadioMode true
par LoRaNetwork.visualizer.canvasVisualizer.radioVisualizer displayReceptionState true
par LoRaNetwork.visualizer.canvasVisualizer.radioVisualizer displayTransmissionState true
par LoRaNetwork.visualizer.canvasVisualizer.radioVisualizer displayAntennaLobes false
par LoRaNetwork.visualizer.canvasVisualizer.radioVisualizer radioFilter "\"**\""
attr mutable ""
par LoRaNetwork.visualizer.canvasVisualizer.radioVisualizer radioModeImages "\"block/process_vs block/timer_vs block/wrx_vs block/wtx_vs block/wrxtx_vs block/cogwheel_vs\""
par LoRaNetwork.visualizer.canvasVisualizer.radioVisualizer receptionStateImages "\"- - misc/receiving misc/receiving\""
par LoRaNetwork.visualizer.canvasVisualizer.radioVisualizer transmissionStateImages "\"- - misc/transmitting\""
par LoRaNetwork.visualizer.canvasVisualizer.radioVisualizer width 16
par LoRaNetwork.visualizer.canvasVisualizer.radioVisualizer height 16
par LoRaNetwork.visualizer.canvasVisualizer.radioVisualizer placementHint "\"bottomRight\""
par LoRaNetwork.visualizer.canvasVisualizer.radioVisualizer placementPriority 0
par LoRaNetwork.visualizer.canvasVisualizer.radioVisualizer antennaLobeNormalize false
par LoRaNetwork.visualizer.canvasVisualizer.radioVisualizer antennaLobeRelativeLabels false
par LoRaNetwork.visualizer.canvasVisualizer.radioVisualizer antennaLobePlaneGlobal true
par LoRaNetwork.visualizer.canvasVisualizer.radioVisualizer antennaLobePlane "\"view\""
attr enum view,xy,xz,yz
par LoRaNetwork.visualizer.canvasVisualizer.radioVisualizer antennaLobeMode "\"logarithmic\""
attr enum logarithmic,linear
par LoRaNetwork.visualizer.canvasVisualizer.radioVisualizer antennaLobeLogarithmicBase 10
par LoRaNetwork.visualizer.canvasVisualizer.radioVisualizer antennaLobeLogarithmicScale 100
par LoRaNetwork.visualizer.canvasVisualizer.radioVisualizer antennaLobeRadius 100
par LoRaNetwork.visualizer.canvasVisualizer.radioVisualizer antennaLobeStep 10deg
attr unit deg
par LoRaNetwork.visualizer.canvasVisualizer.radioVisualizer antennaLobeOpacity 0.25
par LoRaNetwork.visualizer.canvasVisualizer.radioVisualizer antennaLobeLineSmooth true
par LoRaNetwork.visualizer.canvasVisualizer.radioVisualizer antennaLobeLineColor "\"black\""
par LoRaNetwork.visualizer.canvasVisualizer.radioVisualizer antennaLobeLineStyle "\"solid\""
par LoRaNetwork.visualizer.canvasVisualizer.radioVisualizer antennaLobeLineWidth 1
par LoRaNetwork.visualizer.canvasVisualizer.radioVisualizer antennaLobeFillColor "\"white\""
par LoRaNetwork.visualizer.canvasVisualizer.radioVisualizer zIndex 10
par LoRaNetwork.visualizer.canvasVisualizer.physicalLinkVisualizer typename "\"inet.visualizer.canvas.physicallayer.PhysicalLinkCanvasVisualizer\""
par LoRaNetwork.visualizer.canvasVisualizer.physicalLinkVisualizer visualizationTargetModule "\"^.^.^\""
par LoRaNetwork.visualizer.canvasVisualizer.physicalLinkVisualizer visualizationSubjectModule "\"^.^.^\""
par LoRaNetwork.visualizer.canvasVisualizer.physicalLinkVisualizer tags "\"\""
par LoRaNetwork.visualizer.canvasVisualizer.physicalLinkVisualizer displayLinks false
par LoRaNetwork.visualizer.canvasVisualizer.physicalLinkVisualizer activityLevel "\"service\""
attr enum service,peer,protocol
par LoRaNetwork.visualizer.canvasVisualizer.physicalLinkVisualizer nodeFilter "\"*\""
attr mutable ""
par LoRaNetwork.visualizer.canvasVisualizer.physicalLinkVisualizer interfaceFilter "\"*\""
attr mutable ""
par LoRaNetwork.visualizer.canvasVisualizer.physicalLinkVisualizer packetFilter "(omnetpp::cValueHolder)holder: \"*\""
attr mutable ""
par LoRaNetwork.visualizer.canvasVisualizer.physicalLinkVisualizer lineColor "\"olive\""
par LoRaNetwork.visualizer.canvasVisualizer.physicalLinkVisualizer lineStyle "\"dotted\""
par LoRaNetwork.visualizer.canvasVisualizer.physicalLinkVisualizer lineWidth 3
par LoRaNetwork.visualizer.canvasVisualizer.physicalLinkVisualizer lineShift 16
par LoRaNetwork.visualizer.canvasVisualizer.physicalLinkVisualizer lineShiftMode "\"normal\""
par LoRaNetwork.visualizer.canvasVisualizer.physicalLinkVisualizer lineContactSpacing 3
par LoRaNetwork.visualizer.canvasVisualizer.physicalLinkVisualizer lineContactMode "\"rectangular\""
attr enum circular,rectangular
par LoRaNetwork.visualizer.canvasVisualizer.physicalLinkVisualizer labelFormat "\"%n\""
par LoRaNetwork.visualizer.canvasVisualizer.physicalLinkVisualizer labelFont "\"<default>, 8px\""
par LoRaNetwork.visualizer.canvasVisualizer.physicalLinkVisualizer labelColor "\"olive\""
par LoRaNetwork.visualizer.canvasVisualizer.physicalLinkVisualizer fadeOutMode "\"realTime\""
attr enum realTime,animationTime,simulationTime
par LoRaNetwork.visualizer.canvasVisualizer.physicalLinkVisualizer fadeOutTime 1s
attr unit s
par LoRaNetwork.visualizer.canvasVisualizer.physicalLinkVisualizer fadeOutAnimationSpeed 0
par LoRaNetwork.visualizer.canvasVisualizer.physicalLinkVisualizer holdAnimationTime 0s
attr unit s
par LoRaNetwork.visualizer.canvasVisualizer.physicalLinkVisualizer zIndex 1
par LoRaNetwork.visualizer.canvasVisualizer.interfaceTableVisualizer typename "\"inet.visualizer.canvas.linklayer.InterfaceTableCanvasVisualizer\""
par LoRaNetwork.visualizer.canvasVisualizer.interfaceTableVisualizer visualizationTargetModule "\"^.^.^\""
par LoRaNetwork.visualizer.canvasVisualizer.interfaceTableVisualizer visualizationSubjectModule "\"^.^.^\""
par LoRaNetwork.visualizer.canvasVisualizer.interfaceTableVisualizer tags "\"\""
par LoRaNetwork.visualizer.canvasVisualizer.interfaceTableVisualizer networkNodeVisualizerModule "\"^.networkNodeVisualizer\""
par LoRaNetwork.visualizer.canvasVisualizer.interfaceTableVisualizer displayInterfaceTables false
par LoRaNetwork.visualizer.canvasVisualizer.interfaceTableVisualizer displayWiredInterfacesAtConnections true
par LoRaNetwork.visualizer.canvasVisualizer.interfaceTableVisualizer displayBackground false
par LoRaNetwork.visualizer.canvasVisualizer.interfaceTableVisualizer nodeFilter "\"*\""
attr mutable ""
par LoRaNetwork.visualizer.canvasVisualizer.interfaceTableVisualizer interfaceFilter "\"not(lo*)\""
attr mutable ""
par LoRaNetwork.visualizer.canvasVisualizer.interfaceTableVisualizer format "\"%N %\\\\%a%/%l\""
attr mutable ""
par LoRaNetwork.visualizer.canvasVisualizer.interfaceTableVisualizer placementHint "\"top\""
par LoRaNetwork.visualizer.canvasVisualizer.interfaceTableVisualizer placementPriority 0
par LoRaNetwork.visualizer.canvasVisualizer.interfaceTableVisualizer font "\"<default>\""
par LoRaNetwork.visualizer.canvasVisualizer.interfaceTableVisualizer textColor "\"#005030\""
par LoRaNetwork.visualizer.canvasVisualizer.interfaceTableVisualizer backgroundColor "\"white\""
par LoRaNetwork.visualizer.canvasVisualizer.interfaceTableVisualizer opacity 1
par LoRaNetwork.visualizer.canvasVisualizer.interfaceTableVisualizer zIndex 10
par LoRaNetwork.visualizer.canvasVisualizer.dataLinkVisualizer typename "\"inet.visualizer.canvas.linklayer.DataLinkCanvasVisualizer\""
par LoRaNetwork.visualizer.canvasVisualizer.dataLinkVisualizer visualizationTargetModule "\"^.^.^\""
par LoRaNetwork.visualizer.canvasVisualizer.dataLinkVisualizer visualizationSubjectModule "\"^.^.^\""
par LoRaNetwork.visualizer.canvasVisualizer.dataLinkVisualizer tags "\"\""
par LoRaNetwork.visualizer.canvasVisualizer.dataLinkVisualizer displayLinks false
par LoRaNetwork.visualizer.canvasVisualizer.dataLinkVisualizer activityLevel "\"service\""
attr enum service,peer,protocol
par LoRaNetwork.visualizer.canvasVisualizer.dataLinkVisualizer nodeFilter "\"*\""
attr mutable ""
par LoRaNetwork.visualizer.canvasVisualizer.dataLinkVisualizer interfaceFilter "\"*\""
attr mutable ""
par LoRaNetwork.visualizer.canvasVisualizer.dataLinkVisualizer packetFilter "(omnetpp::cValueHolder)holder: \"*\""
attr mutable ""
par LoRaNetwork.visualizer.canvasVisualizer.dataLinkVisualizer lineColor "\"darkcyan\""
par LoRaNetwork.visualizer.canvasVisualizer.dataLinkVisualizer lineStyle "\"solid\""
par LoRaNetwork.visualizer.canvasVisualizer.dataLinkVisualizer lineWidth 3
par LoRaNetwork.visualizer.canvasVisualizer.dataLinkVisualizer lineShift 16
par LoRaNetwork.visualizer.canvasVisualizer.dataLinkVisualizer lineShiftMode "\"normal\""
par LoRaNetwork.visualizer.canvasVisualizer.dataLinkVisualizer lineContactSpacing 3
par LoRaNetwork.visualizer.canvasVisualizer.dataLinkVisualizer lineContactMode "\"rectangular\""
attr enum circular,rectangular
par LoRaNetwork.visualizer.canvasVisualizer.dataLinkVisualizer labelFormat "\"%n\""
par LoRaNetwork.visualizer.canvasVisualizer.dataLinkVisualizer labelFont "\"<default>, 8px\""
par LoRaNetwork.visualizer.canvasVisualizer.dataLinkVisualizer labelColor "\"darkcyan\""
par LoRaNetwork.visualizer.canvasVisualizer.dataLinkVisualizer fadeOutMode "\"realTime\""
attr enum realTime,animationTime,simulationTime
par LoRaNetwork.visualizer.canvasVisualizer.dataLinkVisualizer fadeOutTime 1s
attr unit s
par LoRaNetwork.visualizer.canvasVisualizer.dataLinkVisualizer fadeOutAnimationSpeed 0
par LoRaNetwork.visualizer.canvasVisualizer.dataLinkVisualizer holdAnimationTime 0s
attr unit s
par LoRaNetwork.visualizer.canvasVisualizer.dataLinkVisualizer zIndex 2
par LoRaNetwork.visualizer.canvasVisualizer.linkBreakVisualizer typename "\"inet.visualizer.canvas.linklayer.LinkBreakCanvasVisualizer\""
par LoRaNetwork.visualizer.canvasVisualizer.linkBreakVisualizer visualizationTargetModule "\"^.^.^\""
par LoRaNetwork.visualizer.canvasVisualizer.linkBreakVisualizer visualizationSubjectModule "\"^.^.^\""
par LoRaNetwork.visualizer.canvasVisualizer.linkBreakVisualizer tags "\"\""
par LoRaNetwork.visualizer.canvasVisualizer.linkBreakVisualizer displayLinkBreaks false
par LoRaNetwork.visualizer.canvasVisualizer.linkBreakVisualizer nodeFilter "\"*\""
attr mutable ""
par LoRaNetwork.visualizer.canvasVisualizer.linkBreakVisualizer interfaceFilter "\"*\""
attr mutable ""
par LoRaNetwork.visualizer.canvasVisualizer.linkBreakVisualizer packetFilter "(omnetpp::cValueHolder)holder: \"*\""
attr mutable ""
par LoRaNetwork.visualizer.canvasVisualizer.linkBreakVisualizer icon "\"status/stop\""
par LoRaNetwork.visualizer.canvasVisualizer.linkBreakVisualizer iconTintAmount 0
par LoRaNetwork.visualizer.canvasVisualizer.linkBreakVisualizer iconTintColor "\"\""
par LoRaNetwork.visualizer.canvasVisualizer.linkBreakVisualizer fadeOutMode "\"realTime\""
attr enum realTime,animationTime,simulationTime
par LoRaNetwork.visualizer.canvasVisualizer.linkBreakVisualizer fadeOutTime 1s
attr unit s
par LoRaNetwork.visualizer.canvasVisualizer.linkBreakVisualizer fadeOutAnimationSpeed 0
par LoRaNetwork.visualizer.canvasVisualizer.linkBreakVisualizer zIndex 2
par LoRaNetwork.visualizer.canvasVisualizer.ieee80211Visualizer typename "\"inet.visualizer.canvas.linklayer.Ieee80211CanvasVisualizer\""
par LoRaNetwork.visualizer.canvasVisualizer.ieee80211Visualizer visualizationTargetModule "\"^.^.^\""
par LoRaNetwork.visualizer.canvasVisualizer.ieee80211Visualizer visualizationSubjectModule "\"^.^.^\""
par LoRaNetwork.visualizer.canvasVisualizer.ieee80211Visualizer tags "\"\""
par LoRaNetwork.visualizer.canvasVisualizer.ieee80211Visualizer networkNodeVisualizerModule "\"^.networkNodeVisualizer\""
par LoRaNetwork.visualizer.canvasVisualizer.ieee80211Visualizer displayAssociations false
par LoRaNetwork.visualizer.canvasVisualizer.ieee80211Visualizer nodeFilter "\"*\""
attr mutable ""
par LoRaNetwork.visualizer.canvasVisualizer.ieee80211Visualizer interfaceFilter "\"*\""
attr mutable ""
par LoRaNetwork.visualizer.canvasVisualizer.ieee80211Visualizer minPower -85dBm
attr unit dBm
par LoRaNetwork.visualizer.canvasVisualizer.ieee80211Visualizer maxPower -50dBm
attr unit dBm
par LoRaNetwork.visualizer.canvasVisualizer.ieee80211Visualizer icons "\"misc/signal_power_0 misc/signal_power_1 misc/signal_power_2 misc/signal_power_3\""
par LoRaNetwork.visualizer.canvasVisualizer.ieee80211Visualizer iconColor "\"dark\""
attr enum light,dark
par LoRaNetwork.visualizer.canvasVisualizer.ieee80211Visualizer labelFont "\"<default>\""
par LoRaNetwork.visualizer.canvasVisualizer.ieee80211Visualizer labelColor "\"black\""
par LoRaNetwork.visualizer.canvasVisualizer.ieee80211Visualizer placementHint "\"top\""
par LoRaNetwork.visualizer.canvasVisualizer.ieee80211Visualizer placementPriority 0
par LoRaNetwork.visualizer.canvasVisualizer.ieee80211Visualizer zIndex 2
par LoRaNetwork.visualizer.canvasVisualizer.networkRouteVisualizer typename "\"inet.visualizer.canvas.networklayer.NetworkRouteCanvasVisualizer\""
par LoRaNetwork.visualizer.canvasVisualizer.networkRouteVisualizer visualizationTargetModule "\"^.^.^\""
par LoRaNetwork.visualizer.canvasVisualizer.networkRouteVisualizer visualizationSubjectModule "\"^.^.^\""
par LoRaNetwork.visualizer.canvasVisualizer.networkRouteVisualizer tags "\"\""
par LoRaNetwork.visualizer.canvasVisualizer.networkRouteVisualizer displayRoutes false
par LoRaNetwork.visualizer.canvasVisualizer.networkRouteVisualizer startPathSignal "\"packetReceivedFromUpper\""
par LoRaNetwork.visualizer.canvasVisualizer.networkRouteVisualizer extendPathSignal "\"packetReceivedFromLower\""
par LoRaNetwork.visualizer.canvasVisualizer.networkRouteVisualizer endPathSignal "\"packetSentToUpper\""
par LoRaNetwork.visualizer.canvasVisualizer.networkRouteVisualizer nodeFilter "\"*\""
attr mutable ""
par LoRaNetwork.visualizer.canvasVisualizer.networkRouteVisualizer packetFilter "(omnetpp::cValueHolder)holder: \"*\""
attr mutable ""
par LoRaNetwork.visualizer.canvasVisualizer.networkRouteVisualizer lineColor "\"dark\""
attr enum light,dark
par LoRaNetwork.visualizer.canvasVisualizer.networkRouteVisualizer lineStyle "\"solid\""
par LoRaNetwork.visualizer.canvasVisualizer.networkRouteVisualizer lineWidth 3
par LoRaNetwork.visualizer.canvasVisualizer.networkRouteVisualizer lineSmooth false
par LoRaNetwork.visualizer.canvasVisualizer.networkRouteVisualizer lineShift 16
par LoRaNetwork.visualizer.canvasVisualizer.networkRouteVisualizer lineShiftMode "\"normal\""
par LoRaNetwork.visualizer.canvasVisualizer.networkRouteVisualizer lineContactSpacing 3
par LoRaNetwork.visualizer.canvasVisualizer.networkRouteVisualizer lineContactMode "\"rectangular\""
attr enum circular,rectangular
par LoRaNetwork.visualizer.canvasVisualizer.networkRouteVisualizer labelFormat "\"%n\""
par LoRaNetwork.visualizer.canvasVisualizer.networkRouteVisualizer labelFont "\"<default>, 8px\""
par LoRaNetwork.visualizer.canvasVisualizer.networkRouteVisualizer labelColor "\"\""
par LoRaNetwork.visualizer.canvasVisualizer.networkRouteVisualizer fadeOutMode "\"realTime\""
attr enum realTime,animationTime,simulationTime
par LoRaNetwork.visualizer.canvasVisualizer.networkRouteVisualizer fadeOutTime 1s
attr unit s
par LoRaNetwork.visualizer.canvasVisualizer.networkRouteVisualizer fadeOutAnimationSpeed 0
par LoRaNetwork.visualizer.canvasVisualizer.networkRouteVisualizer zIndex 3
par LoRaNetwork.visualizer.canvasVisualizer.routingTableVisualizer typename "\"inet.visualizer.canvas.networklayer.RoutingTableCanvasVisualizer\""
par LoRaNetwork.visualizer.canvasVisualizer.routingTableVisualizer visualizationTargetModule "\"^.^.^\""
par LoRaNetwork.visualizer.canvasVisualizer.routingTableVisualizer visualizationSubjectModule "\"^.^.^\""
par LoRaNetwork.visualizer.canvasVisualizer.routingTableVisualizer tags "\"\""
par LoRaNetwork.visualizer.canvasVisualizer.routingTableVisualizer displayRoutingTables false
par LoRaNetwork.visualizer.canvasVisualizer.routingTableVisualizer displayRoutesIndividually true
par LoRaNetwork.visualizer.canvasVisualizer.routingTableVisualizer displayLabels true
par LoRaNetwork.visualizer.canvasVisualizer.routingTableVisualizer destinationFilter "\"*\""
attr mutable ""
par LoRaNetwork.visualizer.canvasVisualizer.routingTableVisualizer nodeFilter "\"*\""
attr mutable ""
par LoRaNetwork.visualizer.canvasVisualizer.routingTableVisualizer lineColor "\"black\""
par LoRaNetwork.visualizer.canvasVisualizer.routingTableVisualizer lineStyle "\"solid\""
par LoRaNetwork.visualizer.canvasVisualizer.routingTableVisualizer lineWidth 2
par LoRaNetwork.visualizer.canvasVisualizer.routingTableVisualizer lineShift 16
par LoRaNetwork.visualizer.canvasVisualizer.routingTableVisualizer lineShiftMode "\"normal\""
par LoRaNetwork.visualizer.canvasVisualizer.routingTableVisualizer lineContactSpacing 3
par LoRaNetwork.visualizer.canvasVisualizer.routingTableVisualizer lineContactMode "\"rectangular\""
attr enum circular,rectangular
par LoRaNetwork.visualizer.canvasVisualizer.routingTableVisualizer labelFormat "\"%d/%m -> %g (%n)\""
attr mutable ""
par LoRaNetwork.visualizer.canvasVisualizer.routingTableVisualizer labelFont "\"<default>, 8px\""
par LoRaNetwork.visualizer.canvasVisualizer.routingTableVisualizer labelColor "\"black\""
par LoRaNetwork.visualizer.canvasVisualizer.routingTableVisualizer zIndex 0
par LoRaNetwork.visualizer.canvasVisualizer.transportRouteVisualizer typename "\"inet.visualizer.canvas.transportlayer.TransportRouteCanvasVisualizer\""
par LoRaNetwork.visualizer.canvasVisualizer.transportRouteVisualizer visualizationTargetModule "\"^.^.^\""
par LoRaNetwork.visualizer.canvasVisualizer.transportRouteVisualizer visualizationSubjectModule "\"^.^.^\""
par LoRaNetwork.visualizer.canvasVisualizer.transportRouteVisualizer tags "\"\""
par LoRaNetwork.visualizer.canvasVisualizer.transportRouteVisualizer displayRoutes false
par LoRaNetwork.visualizer.canvasVisualizer.transportRouteVisualizer startPathSignal "\"packetReceivedFromUpper\""
par LoRaNetwork.visualizer.canvasVisualizer.transportRouteVisualizer extendPathSignal "\"packetReceivedFromLower\""
par LoRaNetwork.visualizer.canvasVisualizer.transportRouteVisualizer endPathSignal "\"packetSentToUpper\""
par LoRaNetwork.visualizer.canvasVisualizer.transportRouteVisualizer nodeFilter "\"*\""
attr mutable ""
par LoRaNetwork.visualizer.canvasVisualizer.transportRouteVisualizer packetFilter "(omnetpp::cValueHolder)holder: \"*\""
attr mutable ""
par LoRaNetwork.visualizer.canvasVisualizer.transportRouteVisualizer lineColor "\"dark\""
attr enum light,dark
par LoRaNetwork.visualizer.canvasVisualizer.transportRouteVisualizer lineStyle "\"solid\""
par LoRaNetwork.visualizer.canvasVisualizer.transportRouteVisualizer lineWidth 3
par LoRaNetwork.visualizer.canvasVisualizer.transportRouteVisualizer lineSmooth false
par LoRaNetwork.visualizer.canvasVisualizer.transportRouteVisualizer lineShift 16
par LoRaNetwork.visualizer.canvasVisualizer.transportRouteVisualizer lineShiftMode "\"normal\""
par LoRaNetwork.visualizer.canvasVisualizer.transportRouteVisualizer lineContactSpacing 3
par LoRaNetwork.visualizer.canvasVisualizer.transportRouteVisualizer lineContactMode "\"rectangular\""
attr enum circular,rectangular
par LoRaNetwork.visualizer.canvasVisualizer.transportRouteVisualizer labelFormat "\"%n\""
par LoRaNetwork.visualizer.canvasVisualizer.transportRouteVisualizer labelFont "\"<default>, 8px\""
par LoRaNetwork.visualizer.canvasVisualizer.transportRouteVisualizer labelColor "\"\""
par LoRaNetwork.visualizer.canvasVisualizer.transportRouteVisualizer fadeOutMode "\"realTime\""
attr enum realTime,animationTime,simulationTime
par LoRaNetwork.visualizer.canvasVisualizer.transportRouteVisualizer fadeOutTime 1s
attr unit s
par LoRaNetwork.visualizer.canvasVisualizer.transportRouteVisualizer fadeOutAnimationSpeed 0
par LoRaNetwork.visualizer.canvasVisualizer.transportRouteVisualizer zIndex 4
par LoRaNetwork.visualizer.canvasVisualizer.transportConnectionVisualizer typename "\"inet.visualizer.canvas.transportlayer.TransportConnectionCanvasVisualizer\""
par LoRaNetwork.visualizer.canvasVisualizer.transportConnectionVisualizer visualizationTargetModule "\"^.^.^\""
par LoRaNetwork.visualizer.canvasVisualizer.transportConnectionVisualizer visualizationSubjectModule "\"^.^.^\""
par LoRaNetwork.visualizer.canvasVisualizer.transportConnectionVisualizer tags "\"\""
par LoRaNetwork.visualizer.canvasVisualizer.transportConnectionVisualizer networkNodeVisualizerModule "\"^.networkNodeVisualizer\""
par LoRaNetwork.visualizer.canvasVisualizer.transportConnectionVisualizer displayTransportConnections false
par LoRaNetwork.visualizer.canvasVisualizer.transportConnectionVisualizer sourceNodeFilter "\"*\""
attr mutable ""
par LoRaNetwork.visualizer.canvasVisualizer.transportConnectionVisualizer sourcePortFilter "\"*\""
attr mutable ""
par LoRaNetwork.visualizer.canvasVisualizer.transportConnectionVisualizer destinationNodeFilter "\"*\""
attr mutable ""
par LoRaNetwork.visualizer.canvasVisualizer.transportConnectionVisualizer destinationPortFilter "\"*\""
attr mutable ""
par LoRaNetwork.visualizer.canvasVisualizer.transportConnectionVisualizer icon "\"misc/marker_s\""
par LoRaNetwork.visualizer.canvasVisualizer.transportConnectionVisualizer iconColor "\"dark\""
attr enum light,dark
par LoRaNetwork.visualizer.canvasVisualizer.transportConnectionVisualizer labelFont "\"<default>\""
par LoRaNetwork.visualizer.canvasVisualizer.transportConnectionVisualizer labelColor "\"black\""
par LoRaNetwork.visualizer.canvasVisualizer.transportConnectionVisualizer placementHint "\"top\""
par LoRaNetwork.visualizer.canvasVisualizer.transportConnectionVisualizer placementPriority 0
par LoRaNetwork.visualizer.canvasVisualizer.transportConnectionVisualizer zIndex 4
par LoRaNetwork.visualizer.canvasVisualizer.failureProtectionConfigurationVisualizer typename "\"inet.visualizer.canvas.configurator.FailureProtectionConfigurationCanvasVisualizer\""
par LoRaNetwork.visualizer.canvasVisualizer.failureProtectionConfigurationVisualizer visualizationTargetModule "\"^.^.^\""
par LoRaNetwork.visualizer.canvasVisualizer.failureProtectionConfigurationVisualizer visualizationSubjectModule "\"^.^.^\""
par LoRaNetwork.visualizer.canvasVisualizer.failureProtectionConfigurationVisualizer tags "\"\""
par LoRaNetwork.visualizer.canvasVisualizer.failureProtectionConfigurationVisualizer displayTrees false
par LoRaNetwork.visualizer.canvasVisualizer.failureProtectionConfigurationVisualizer lineColor "\"dark\""
attr enum light,dark
par LoRaNetwork.visualizer.canvasVisualizer.failureProtectionConfigurationVisualizer lineStyle "\"solid\""
par LoRaNetwork.visualizer.canvasVisualizer.failureProtectionConfigurationVisualizer lineWidth 3
par LoRaNetwork.visualizer.canvasVisualizer.failureProtectionConfigurationVisualizer lineSmooth false
par LoRaNetwork.visualizer.canvasVisualizer.failureProtectionConfigurationVisualizer lineShift 16
par LoRaNetwork.visualizer.canvasVisualizer.failureProtectionConfigurationVisualizer lineShiftMode "\"normal\""
par LoRaNetwork.visualizer.canvasVisualizer.failureProtectionConfigurationVisualizer lineContactSpacing 3
par LoRaNetwork.visualizer.canvasVisualizer.failureProtectionConfigurationVisualizer lineContactMode "\"rectangular\""
attr enum circular,rectangular
par LoRaNetwork.visualizer.canvasVisualizer.failureProtectionConfigurationVisualizer failureProtectionConfiguratorModule "\"failureProtectionConfigurator\""
par LoRaNetwork.visualizer.canvasVisualizer.failureProtectionConfigurationVisualizer streamFilter "\"*\""
par LoRaNetwork.visualizer.canvasVisualizer.failureProtectionConfigurationVisualizer zIndex 3
par LoRaNetwork.visualizer.canvasVisualizer.streamRedundancyConfigurationVisualizer typename "\"inet.visualizer.canvas.configurator.StreamRedundancyConfigurationCanvasVisualizer\""
par LoRaNetwork.visualizer.canvasVisualizer.streamRedundancyConfigurationVisualizer visualizationTargetModule "\"^.^.^\""
par LoRaNetwork.visualizer.canvasVisualizer.streamRedundancyConfigurationVisualizer visualizationSubjectModule "\"^.^.^\""
par LoRaNetwork.visualizer.canvasVisualizer.streamRedundancyConfigurationVisualizer tags "\"\""
par LoRaNetwork.visualizer.canvasVisualizer.streamRedundancyConfigurationVisualizer displayTrees false
par LoRaNetwork.visualizer.canvasVisualizer.streamRedundancyConfigurationVisualizer lineColor "\"dark\""
attr enum light,dark
par LoRaNetwork.visualizer.canvasVisualizer.streamRedundancyConfigurationVisualizer lineStyle "\"solid\""
par LoRaNetwork.visualizer.canvasVisualizer.streamRedundancyConfigurationVisualizer lineWidth 3
par LoRaNetwork.visualizer.canvasVisualizer.streamRedundancyConfigurationVisualizer lineSmooth false
par LoRaNetwork.visualizer.canvasVisualizer.streamRedundancyConfigurationVisualizer lineShift 16
par LoRaNetwork.visualizer.canvasVisualizer.streamRedundancyConfigurationVisualizer lineShiftMode "\"normal\""
par LoRaNetwork.visualizer.canvasVisualizer.streamRedundancyConfigurationVisualizer lineContactSpacing 3
par LoRaNetwork.visualizer.canvasVisualizer.streamRedundancyConfigurationVisualizer lineContactMode "\"rectangular\""
attr enum circular,rectangular
par LoRaNetwork.visualizer.canvasVisualizer.streamRedundancyConfigurationVisualizer streamRedundancyConfiguratorModule "\"streamRedundancyConfigurator\""
par LoRaNetwork.visualizer.canvasVisualizer.streamRedundancyConfigurationVisualizer streamFilter "\"*\""
par LoRaNetwork.visualizer.canvasVisualizer.streamRedundancyConfigurationVisualizer zIndex 3
par LoRaNetwork.visualizer.canvasVisualizer typename "\"inet.visualizer.canvas.integrated.IntegratedCanvasVisualizer\""
par LoRaNetwork.visualizer typename "\"inet.visualizer.common.IntegratedVisualizer\""
par LoRaNetwork.loRaNodes[0].interfaceTable typename "\"inet.networklayer.common.InterfaceTable\""
par LoRaNetwork.loRaNodes[0].interfaceTable displayAddresses false
par LoRaNetwork.loRaNodes[0].mobility typename "\"inet.mobility.static.StationaryMobility\""
par LoRaNetwork.loRaNodes[0].mobility subjectModule "\"^\""
par LoRaNetwork.loRaNodes[0].mobility coordinateSystemModule "\"\""
par LoRaNetwork.loRaNodes[0].mobility displayStringTextFormat "\"p: %p\\nv: %v\""
attr mutable ""
par LoRaNetwork.loRaNodes[0].mobility updateDisplayString true
par LoRaNetwork.loRaNodes[0].mobility constraintAreaMinX "-inf m"
attr unit m
par LoRaNetwork.loRaNodes[0].mobility constraintAreaMinY "-inf m"
attr unit m
par LoRaNetwork.loRaNodes[0].mobility constraintAreaMinZ "-inf m"
attr unit m
par LoRaNetwork.loRaNodes[0].mobility constraintAreaMaxX "inf m"
attr unit m
par LoRaNetwork.loRaNodes[0].mobility constraintAreaMaxY "inf m"
attr unit m
par LoRaNetwork.loRaNodes[0].mobility constraintAreaMaxZ "inf m"
attr unit m
par LoRaNetwork.loRaNodes[0].mobility initialX -304.522m
attr unit m
par LoRaNetwork.loRaNodes[0].mobility initialY 371.613m
attr unit m
par LoRaNetwork.loRaNodes[0].mobility initialZ 23m
attr unit m
par LoRaNetwork.loRaNodes[0].mobility initialLatitude "nan deg"
attr unit deg
par LoRaNetwork.loRaNodes[0].mobility initialLongitude "nan deg"
attr unit deg
par LoRaNetwork.loRaNodes[0].mobility initialAltitude 0m
attr unit m
par LoRaNetwork.loRaNodes[0].mobility initialHeading 0deg
attr unit deg
par LoRaNetwork.loRaNodes[0].mobility initialElevation 0deg
attr unit deg
par LoRaNetwork.loRaNodes[0].mobility initialBank 0deg
attr unit deg
par LoRaNetwork.loRaNodes[0].mobility initFromDisplayString false
par LoRaNetwork.loRaNodes[0].mobility updateFromDisplayString true
par LoRaNetwork.loRaNodes[0].LoRaNic.radioIn.channel typename "\"ned.IdealChannel\""
par LoRaNetwork.loRaNodes[0].LoRaNic.mac.upperLayerOut.channel typename "\"ned.IdealChannel\""
par LoRaNetwork.loRaNodes[0].LoRaNic.upperLayerIn.channel typename "\"ned.IdealChannel\""
par LoRaNetwork.loRaNodes[0].LoRaNic.queue typename "\"inet.queueing.queue.DropTailQueue\""
par LoRaNetwork.loRaNodes[0].LoRaNic.queue displayStringTextFormat "\"contains %p pk (%l) pushed %u\\npulled %o removed %r dropped %d\""
par LoRaNetwork.loRaNodes[0].LoRaNic.queue packetCapacity -1
par LoRaNetwork.loRaNodes[0].LoRaNic.queue dataCapacity -1b
attr unit b
par LoRaNetwork.loRaNodes[0].LoRaNic.queue dropperClass "\"inet::queueing::PacketAtCollectionEndDropper\""
par LoRaNetwork.loRaNodes[0].LoRaNic.queue comparatorClass "\"\""
par LoRaNetwork.loRaNodes[0].LoRaNic.queue bufferModule "\"\""
scalar LoRaNetwork.loRaNodes[0].LoRaNic.queue queueLength:last 0
attr autoWarmupFilter false
attr interpolationmode sample-hold
attr recordingmode last
attr source "warmup(atomic(constant0(packetPushEnded) + count(packetPushStarted) - count(packetPulled) - count(packetRemoved) - count(packetDropped)))"
attr title "queue length, last"
attr unit pk
scalar LoRaNetwork.loRaNodes[0].LoRaNic.queue queueLength:max 0
attr autoWarmupFilter false
attr interpolationmode sample-hold
attr recordingmode max
attr source "warmup(atomic(constant0(packetPushEnded) + count(packetPushStarted) - count(packetPulled) - count(packetRemoved) - count(packetDropped)))"
attr title "queue length, max"
attr unit pk
scalar LoRaNetwork.loRaNodes[0].LoRaNic.queue queueLength:timeavg 0
attr autoWarmupFilter false
attr interpolationmode sample-hold
attr recordingmode timeavg
attr source "warmup(atomic(constant0(packetPushEnded) + count(packetPushStarted) - count(packetPulled) - count(packetRemoved) - count(packetDropped)))"
attr title "queue length, timeavg"
attr unit pk
scalar LoRaNetwork.loRaNodes[0].LoRaNic.queue queueBitLength:last 0
attr autoWarmupFilter false
attr interpolationmode sample-hold
attr recordingmode last
attr source "warmup(atomic(constant0(packetPushEnded) + sum(packetLength(packetPushStarted)) - sum(packetLength(packetPulled)) - sum(packetLength(packetRemoved)) - sum(packetLength(packetDropped))))"
attr title "queue bit length, last"
attr unit b
scalar LoRaNetwork.loRaNodes[0].LoRaNic.queue queueBitLength:max 0
attr autoWarmupFilter false
attr interpolationmode sample-hold
attr recordingmode max
attr source "warmup(atomic(constant0(packetPushEnded) + sum(packetLength(packetPushStarted)) - sum(packetLength(packetPulled)) - sum(packetLength(packetRemoved)) - sum(packetLength(packetDropped))))"
attr title "queue bit length, max"
attr unit b
scalar LoRaNetwork.loRaNodes[0].LoRaNic.queue queueBitLength:timeavg 0
attr autoWarmupFilter false
attr interpolationmode sample-hold
attr recordingmode timeavg
attr source "warmup(atomic(constant0(packetPushEnded) + sum(packetLength(packetPushStarted)) - sum(packetLength(packetPulled)) - sum(packetLength(packetRemoved)) - sum(packetLength(packetDropped))))"
attr title "queue bit length, timeavg"
attr unit b
statistic LoRaNetwork.loRaNodes[0].LoRaNic.queue queueingTime:histogram
field count 550
field mean 0
field stddev 0
field min 0
field max 0
field sum 0
field sqrsum 0
attr interpolationmode none
attr recordingmode histogram
attr source queueingTime(packetPulled)
attr title "queueing times"
attr unit s
bin	-inf	0
bin	-0.5	0
bin	-0.48	0
bin	-0.46	0
bin	-0.44	0
bin	-0.42	0
bin	-0.4	0
bin	-0.38	0
bin	-0.36	0
bin	-0.34	0
bin	-0.32	0
bin	-0.3	0
bin	-0.28	0
bin	-0.26	0
bin	-0.24	0
bin	-0.22	0
bin	-0.2	0
bin	-0.18	0
bin	-0.16	0
bin	-0.14	0
bin	-0.12	0
bin	-0.1	0
bin	-0.08	0
bin	-0.06	0
bin	-0.04	0
bin	-0.02	0
bin	0	550
bin	0.02	0
bin	0.04	0
bin	0.06	0
bin	0.08	0
bin	0.1	0
bin	0.12	0
bin	0.14	0
bin	0.16	0
bin	0.18	0
bin	0.2	0
bin	0.22	0
bin	0.24	0
bin	0.26	0
bin	0.28	0
bin	0.3	0
bin	0.32	0
bin	0.34	0
bin	0.36	0
bin	0.38	0
bin	0.4	0
bin	0.42	0
bin	0.44	0
bin	0.46	0
bin	0.48	0
bin	0.5	0
scalar LoRaNetwork.loRaNodes[0].LoRaNic.queue outgoingPackets:count 550
attr recordingmode count
attr source packetPulled
attr title "outgoing packets, count"
attr unit pk
scalar LoRaNetwork.loRaNodes[0].LoRaNic.queue outgoingPacketLengths:sum 44000
attr interpolationmode none
attr recordingmode sum
attr source packetLength(packetPulled)
attr title "outgoing packet lengths, sum"
attr unit b
statistic LoRaNetwork.loRaNodes[0].LoRaNic.queue outgoingPacketLengths:histogram
field count 550
field mean 80
field stddev 0
field min 80
field max 80
field sum 44000
field sqrsum 3520000
attr interpolationmode none
attr recordingmode histogram
attr source packetLength(packetPulled)
attr title "outgoing packet lengths"
attr unit b
bin	-inf	0
bin	79	0
bin	80	550
bin	81	0
statistic LoRaNetwork.loRaNodes[0].LoRaNic.queue flowQueueingTime:histogram
field count 0
field mean nan
field stddev nan
field min nan
field max nan
field sum 0
field sqrsum 0
attr interpolationmode none
attr recordingmode histogram
attr source queueingTime(demuxFlow(packetPulled))
attr title "flow queueing times"
attr unit s
bin	-inf	0
bin	0	0
bin	1	0
scalar LoRaNetwork.loRaNodes[0].LoRaNic.queue incomingPackets:count 550
attr recordingmode count
attr source packetPushStarted
attr title "incoming packets, count"
attr unit pk
scalar LoRaNetwork.loRaNodes[0].LoRaNic.queue incomingPacketLengths:sum 44000
attr interpolationmode none
attr recordingmode sum
attr source packetLength(packetPushStarted)
attr title "incoming packet lengths, sum"
attr unit b
statistic LoRaNetwork.loRaNodes[0].LoRaNic.queue incomingPacketLengths:histogram
field count 550
field mean 80
field stddev 0
field min 80
field max 80
field sum 44000
field sqrsum 3520000
attr interpolationmode none
attr recordingmode histogram
attr source packetLength(packetPushStarted)
attr title "incoming packet lengths"
attr unit b
bin	-inf	0
bin	79	0
bin	80	550
bin	81	0
scalar LoRaNetwork.loRaNodes[0].LoRaNic.queue droppedPacketsQueueOverflow:count 0
attr interpolationmode none
attr recordingmode count
attr source packetDropReasonIsQueueOverflow(packetDropped)
attr title "dropped packets: queue overflow, count"
attr unit pk
scalar LoRaNetwork.loRaNodes[0].LoRaNic.queue droppedPacketLengthsQueueOverflow:sum 0
attr interpolationmode none
attr recordingmode sum
attr source packetLength(packetDropReasonIsQueueOverflow(packetDropped))
attr title "dropped packet lengths: queue overflow, sum"
attr unit b
par LoRaNetwork.loRaNodes[0].LoRaNic.mac typename "\"flora.LoRa.LoRaMac\""
par LoRaNetwork.loRaNodes[0].LoRaNic.mac interfaceTableModule "\"LoRaNetwork.loRaNodes[0].interfaceTable\""
par LoRaNetwork.loRaNodes[0].LoRaNic.mac radioModule "\"^.radio\""
par LoRaNetwork.loRaNodes[0].LoRaNic.mac address "\"0A-AA-00-00-00-01\""
attr mutable ""
par LoRaNetwork.loRaNodes[0].LoRaNic.mac fcsMode "\"declared\""
attr enum declared,computed
par LoRaNetwork.loRaNodes[0].LoRaNic.mac useAck true
par LoRaNetwork.loRaNodes[0].LoRaNic.mac bitrate 250bps
attr unit bps
par LoRaNetwork.loRaNodes[0].LoRaNic.mac headerLength 17B
attr unit B
par LoRaNetwork.loRaNodes[0].LoRaNic.mac ackLength 14B
attr unit B
par LoRaNetwork.loRaNodes[0].LoRaNic.mac sifsTime 1e-05s
attr unit s
par LoRaNetwork.loRaNodes[0].LoRaNic.mac slotTime 2e-05s
attr unit s
par LoRaNetwork.loRaNodes[0].LoRaNic.mac difsTime 5e-05s
attr unit s
par LoRaNetwork.loRaNodes[0].LoRaNic.mac ackTimeout 0.44803s
attr unit s
par LoRaNetwork.loRaNodes[0].LoRaNic.mac mtu 1500
par LoRaNetwork.loRaNodes[0].LoRaNic.mac cwMin 31
par LoRaNetwork.loRaNodes[0].LoRaNic.mac cwMax 1023
par LoRaNetwork.loRaNodes[0].LoRaNic.mac cwMulticast 31
par LoRaNetwork.loRaNodes[0].LoRaNic.mac retryLimit 7
scalar LoRaNetwork.loRaNodes[0].LoRaNic.mac numRetry 0
scalar LoRaNetwork.loRaNodes[0].LoRaNic.mac numSentWithoutRetry 0
scalar LoRaNetwork.loRaNodes[0].LoRaNic.mac numGivenUp 0
scalar LoRaNetwork.loRaNodes[0].LoRaNic.mac numSent 550
scalar LoRaNetwork.loRaNodes[0].LoRaNic.mac numReceived 0
scalar LoRaNetwork.loRaNodes[0].LoRaNic.mac numSentBroadcast 0
scalar LoRaNetwork.loRaNodes[0].LoRaNic.mac numReceivedBroadcast 0
scalar LoRaNetwork.loRaNodes[0].LoRaNic.mac packetDropIncorrectlyReceived:count 0
attr interpolationmode none
attr recordingmode count
attr source packetDropReasonIsIncorrectlyReceived(packetDropped)
attr title "packet drop: incorrectly received, count"
scalar LoRaNetwork.loRaNodes[0].LoRaNic.mac packetDropIncorrectlyReceived:sum(packetBytes) 0
attr interpolationmode none
attr recordingmode sum(packetBytes)
attr source packetDropReasonIsIncorrectlyReceived(packetDropped)
attr title "packet drop: incorrectly received, sum(packetBytes)"
scalar LoRaNetwork.loRaNodes[0].LoRaNic.mac packetDropNotAddressedToUs:count 0
attr interpolationmode none
attr recordingmode count
attr source packetDropReasonIsNotAddressedToUs(packetDropped)
attr title "packet drop: not addressed to us, count"
scalar LoRaNetwork.loRaNodes[0].LoRaNic.mac packetDropNotAddressedToUs:sum(packetBytes) 0
attr interpolationmode none
attr recordingmode sum(packetBytes)
attr source packetDropReasonIsNotAddressedToUs(packetDropped)
attr title "packet drop: not addressed to us, sum(packetBytes)"
scalar LoRaNetwork.loRaNodes[0].LoRaNic.mac packetDropQueueOverflow:count 0
attr interpolationmode none
attr recordingmode count
attr source packetDropReasonIsQueueOverflow(packetDropped)
attr title "packet drop: queue overflow, count"
scalar LoRaNetwork.loRaNodes[0].LoRaNic.mac packetDropQueueOverflow:sum(packetBytes) 0
attr interpolationmode none
attr recordingmode sum(packetBytes)
attr source packetDropReasonIsQueueOverflow(packetDropped)
attr title "packet drop: queue overflow, sum(packetBytes)"
scalar LoRaNetwork.loRaNodes[0].LoRaNic.mac packetDropRetryLimitReached:count 0
attr interpolationmode none
attr recordingmode count
attr source packetDropReasonIsRetryLimitReached(packetDropped)
attr title "packet drop: retry limit reached, count"
scalar LoRaNetwork.loRaNodes[0].LoRaNic.mac packetDropRetryLimitReached:sum(packetBytes) 0
attr interpolationmode none
attr recordingmode sum(packetBytes)
attr source packetDropReasonIsRetryLimitReached(packetDropped)
attr title "packet drop: retry limit reached, sum(packetBytes)"
scalar LoRaNetwork.loRaNodes[0].LoRaNic.mac linkBroken:count 0
attr interpolationmode none
attr recordingmode count
attr source linkBroken
attr title "link break, count"
par LoRaNetwork.loRaNodes[0].LoRaNic.radio.antenna typename "\"inet.physicallayer.wireless.common.antenna.IsotropicAntenna\""
par LoRaNetwork.loRaNodes[0].LoRaNic.radio.antenna mobilityModule "\"^.^.^.mobility\""
par LoRaNetwork.loRaNodes[0].LoRaNic.radio.antenna numAntennas 1
par LoRaNetwork.loRaNodes[0].LoRaNic.radio.transmitter typename "\"flora.LoRaPhy.LoRaTransmitter\""
par LoRaNetwork.loRaNodes[0].LoRaNic.radio.transmitter preambleDuration 0.001s
attr unit s
par LoRaNetwork.loRaNodes[0].LoRaNic.radio.transmitter headerLength 0b
attr unit b
par LoRaNetwork.loRaNodes[0].LoRaNic.radio.transmitter bitrate 250000bps
attr unit bps
par LoRaNetwork.loRaNodes[0].LoRaNic.radio.transmitter power 0.025118W
attr unit W
par LoRaNetwork.loRaNodes[0].LoRaNic.radio.transmitter centerFrequency 8.68e+08Hz
attr unit Hz
par LoRaNetwork.loRaNodes[0].LoRaNic.radio.transmitter bandwidth 250000Hz
attr unit Hz
par LoRaNetwork.loRaNodes[0].LoRaNic.radio.transmitter modulation "\"LoRaModulation\""
scalar LoRaNetwork.loRaNodes[0].LoRaNic.radio.transmitter LoRaTransmissionCreated:count 550
attr recordingmode count
attr source LoRaTransmissionCreated
par LoRaNetwork.loRaNodes[0].LoRaNic.radio.receiver typename "\"flora.LoRaPhy.LoRaReceiver\""
par LoRaNetwork.loRaNodes[0].LoRaNic.radio.receiver snirThreshold -8dB
attr unit dB
par LoRaNetwork.loRaNodes[0].LoRaNic.radio.receiver snirThresholdMode "\"min\""
attr unit min,mean
par LoRaNetwork.loRaNodes[0].LoRaNic.radio.receiver energyDetection -110dBm
attr unit dBm
par LoRaNetwork.loRaNodes[0].LoRaNic.radio.receiver sensitivity -137dBm
attr unit dBm
par LoRaNetwork.loRaNodes[0].LoRaNic.radio.receiver centerFrequency 8.68e+08Hz
attr unit Hz
par LoRaNetwork.loRaNodes[0].LoRaNic.radio.receiver bandwidth 250000Hz
attr unit Hz
par LoRaNetwork.loRaNodes[0].LoRaNic.radio.receiver modulation "\"BPSK\""
par LoRaNetwork.loRaNodes[0].LoRaNic.radio.receiver alohaChannelModel false
[...]
attr title "dropped packets: queue overflow, count"
attr unit pk
scalar LoRaNetwork.nsRouter.eth[0].queue droppedPacketLengthsQueueOverflow:sum 0
attr interpolationmode none
attr recordingmode sum
attr source packetLength(packetDropReasonIsQueueOverflow(packetDropped))
attr title "dropped packet lengths: queue overflow, sum"
attr unit b
par LoRaNetwork.nsRouter.eth[0].mac typename "\"inet.linklayer.ethernet.basic.EthernetMac\""
par LoRaNetwork.nsRouter.eth[0].mac interfaceTableModule "\"LoRaNetwork.nsRouter.interfaceTable\""
par LoRaNetwork.nsRouter.eth[0].mac displayStringTextFormat "\"rate: %b\\nsent: %s, rcvd: %r\\nqueue: %q, drop: %d\""
par LoRaNetwork.nsRouter.eth[0].mac sendRawBytes false
par LoRaNetwork.nsRouter.eth[0].mac promiscuous false
par LoRaNetwork.nsRouter.eth[0].mac duplexMode true
par LoRaNetwork.nsRouter.eth[0].mac mtu 1500B
attr unit B
par LoRaNetwork.nsRouter.eth[0].mac fcsMode "\"declared\""
attr enum declared,computed
par LoRaNetwork.nsRouter.eth[0].mac stopOperationExtraTime -1s
attr unit s
par LoRaNetwork.nsRouter.eth[0].mac stopOperationTimeout 2s
attr unit s
scalar LoRaNetwork.nsRouter.eth[0].mac "simulated time" 864000
scalar LoRaNetwork.nsRouter.eth[0].mac full-duplex 1
scalar LoRaNetwork.nsRouter.eth[0].mac "frames/sec sent" 0.011180555555556
scalar LoRaNetwork.nsRouter.eth[0].mac "frames/sec rcvd" 0.0038773148148148
scalar LoRaNetwork.nsRouter.eth[0].mac "bits/sec sent" 6.2502777777778
scalar LoRaNetwork.nsRouter.eth[0].mac "bits/sec rcvd" 1.9851851851852
scalar LoRaNetwork.nsRouter.eth[0].mac "rx channel idle (%)" 99.999999776667
scalar LoRaNetwork.nsRouter.eth[0].mac "rx channel utilization (%)" 2.2333333333333e-07
scalar LoRaNetwork.nsRouter.eth[0].mac rxPausePkUnits:count 0
attr interpolationmode none
attr recordingmode count
attr title "pause units received, count"
scalar LoRaNetwork.nsRouter.eth[0].mac rxPausePkUnits:sum 0
attr interpolationmode none
attr recordingmode sum
attr title "pause units received, sum"
scalar LoRaNetwork.nsRouter.eth[0].mac txPausePkUnits:count 0
attr interpolationmode none
attr recordingmode count
attr title "pause units sent, count"
scalar LoRaNetwork.nsRouter.eth[0].mac txPausePkUnits:sum 0
attr interpolationmode none
attr recordingmode sum
attr title "pause units sent, sum"
scalar LoRaNetwork.nsRouter.eth[0].mac rxPkOk:count 3350
attr interpolationmode none
attr recordingmode count
attr source rxPkOk
attr title "packets received OK, count"
scalar LoRaNetwork.nsRouter.eth[0].mac rxPkOk:sum(packetBytes) 214400
attr interpolationmode none
attr recordingmode sum(packetBytes)
attr source rxPkOk
attr title "packets received OK, sum(packetBytes)"
scalar LoRaNetwork.nsRouter.eth[0].mac txPk:count 9660
attr interpolationmode none
attr recordingmode count
attr source packetSentToLower
attr title "packets transmitted, count"
scalar LoRaNetwork.nsRouter.eth[0].mac txPk:sum(packetBytes) 675030
attr interpolationmode none
attr recordingmode sum(packetBytes)
attr source packetSentToLower
attr title "packets transmitted, sum(packetBytes)"
scalar LoRaNetwork.nsRouter.eth[0].mac packetReceivedFromUpper:count 9660
attr interpolationmode none
attr recordingmode count
attr source packetReceivedFromUpper
attr title "packet bytes from higher layer, count"
scalar LoRaNetwork.nsRouter.eth[0].mac packetReceivedFromUpper:sum(packetBytes) 614730
attr interpolationmode none
attr recordingmode sum(packetBytes)
attr source packetReceivedFromUpper
attr title "packet bytes from higher layer, sum(packetBytes)"
scalar LoRaNetwork.nsRouter.eth[0].mac passedUpPk:count 3350
attr interpolationmode none
attr recordingmode count
attr source packetSentToUpper
attr title "packets passed to higher layer, count"
scalar LoRaNetwork.nsRouter.eth[0].mac passedUpPk:sum(packetBytes) 214400
attr interpolationmode none
attr recordingmode sum(packetBytes)
attr source packetSentToUpper
attr title "packets passed to higher layer, sum(packetBytes)"
scalar LoRaNetwork.nsRouter.eth[0].mac packetDropIncorrectlyReceived:count 0
attr interpolationmode none
attr recordingmode count
attr source packetDropReasonIsIncorrectlyReceived(packetDropped)
attr title "packet drop: incorrectly received, count"
scalar LoRaNetwork.nsRouter.eth[0].mac packetDropIncorrectlyReceived:sum(packetBytes) 0
attr interpolationmode none
attr recordingmode sum(packetBytes)
attr source packetDropReasonIsIncorrectlyReceived(packetDropped)
attr title "packet drop: incorrectly received, sum(packetBytes)"
scalar LoRaNetwork.nsRouter.eth[0].mac packetDropInterfaceDown:count 0
attr interpolationmode none
attr recordingmode count
attr source packetDropReasonIsInterfaceDown(packetDropped)
attr title "packet drop: interface down, count"
scalar LoRaNetwork.nsRouter.eth[0].mac packetDropInterfaceDown:sum(packetBytes) 0
attr interpolationmode none
attr recordingmode sum(packetBytes)
attr source packetDropReasonIsInterfaceDown(packetDropped)
attr title "packet drop: interface down, sum(packetBytes)"
scalar LoRaNetwork.nsRouter.eth[0].mac packetDropNotAddressedToUs:count 0
attr interpolationmode none
attr recordingmode count
attr source packetDropReasonIsNotAddressedToUs(packetDropped)
attr title "packet drop: not addressed to us, count"
scalar LoRaNetwork.nsRouter.eth[0].mac packetDropNotAddressedToUs:sum(packetBytes) 0
attr interpolationmode none
attr recordingmode sum(packetBytes)
attr source packetDropReasonIsNotAddressedToUs(packetDropped)
attr title "packet drop: not addressed to us, sum(packetBytes)"
par LoRaNetwork.nsRouter.eth[0] typename "\"inet.linklayer.ethernet.EthernetInterface\""
par LoRaNetwork.nsRouter.eth[0] displayStringTextFormat "\"%a (%i)\\n%m\""
par LoRaNetwork.nsRouter.eth[0] recordPcap false
par LoRaNetwork.nsRouter.eth[0] numPcapRecorders 0
par LoRaNetwork.nsRouter.eth[0] interfaceTableModule "\"LoRaNetwork.nsRouter.interfaceTable\""
par LoRaNetwork.nsRouter.eth[0] protocol "\"ethernetmac\""
par LoRaNetwork.nsRouter.eth[0] address "\"0A-AA-00-00-00-0F\""
attr mutable ""
par LoRaNetwork.nsRouter.eth[0] duplexMode true
par LoRaNetwork.nsRouter.eth[0] csmacdSupport false
par LoRaNetwork.nsRouter.eth[0] bitrate 0bps
attr unit bps
par LoRaNetwork.nsRouter.eth[0] fcsMode "\"declared\""
attr enum declared,computed
scalar LoRaNetwork.nsRouter.eth[0] packetDropInterfaceDown:count 0
attr interpolationmode none
attr recordingmode count
attr source packetDropReasonIsInterfaceDown(packetDropped)
attr title "packet drops: interface down, count"
scalar LoRaNetwork.nsRouter.eth[0] packetDropInterfaceDown:sum(packetBytes) 0
attr interpolationmode none
attr recordingmode sum(packetBytes)
attr source packetDropReasonIsInterfaceDown(packetDropped)
attr title "packet drops: interface down, sum(packetBytes)"
scalar LoRaNetwork.nsRouter.eth[0] packetDropNoCarrier:count 0
attr interpolationmode none
attr recordingmode count
attr source packetDropReasonIsNoCarrier(packetDropped)
attr title "packet drops: no carrier, count"
scalar LoRaNetwork.nsRouter.eth[0] packetDropNoCarrier:sum(packetBytes) 0
attr interpolationmode none
attr recordingmode sum(packetBytes)
attr source packetDropReasonIsNoCarrier(packetDropped)
attr title "packet drops: no carrier, sum(packetBytes)"
par LoRaNetwork.nsRouter.ipv4.transportIn.channel typename "\"ned.IdealChannel\""
par LoRaNetwork.nsRouter.ipv4.up.out[0].channel typename "\"ned.IdealChannel\""
par LoRaNetwork.nsRouter.ipv4.lp.out[2].channel typename "\"ned.IdealChannel\""
par LoRaNetwork.nsRouter.ipv4.ifIn.channel typename "\"ned.IdealChannel\""
par LoRaNetwork.nsRouter.ipv4.configurator typename "\"inet.networklayer.configurator.ipv4.Ipv4NodeConfigurator\""
par LoRaNetwork.nsRouter.ipv4.configurator interfaceTableModule "\"LoRaNetwork.nsRouter.interfaceTable\""
par LoRaNetwork.nsRouter.ipv4.configurator routingTableModule "\"LoRaNetwork.nsRouter.ipv4.routingTable\""
par LoRaNetwork.nsRouter.ipv4.configurator networkConfiguratorModule "\"configurator\""
par LoRaNetwork.nsRouter.ipv4.configurator configureRoutingTable true
par LoRaNetwork.nsRouter.ipv4.routingTable typename "\"inet.networklayer.ipv4.Ipv4RoutingTable\""
par LoRaNetwork.nsRouter.ipv4.routingTable interfaceTableModule "\"LoRaNetwork.nsRouter.interfaceTable\""
par LoRaNetwork.nsRouter.ipv4.routingTable routerId "\"auto\""
par LoRaNetwork.nsRouter.ipv4.routingTable netmaskRoutes "\"*\""
par LoRaNetwork.nsRouter.ipv4.routingTable forwarding true
par LoRaNetwork.nsRouter.ipv4.routingTable multicastForwarding false
par LoRaNetwork.nsRouter.ipv4.routingTable useAdminDist false
par LoRaNetwork.nsRouter.ipv4.routingTable routingFile "\"\""
par LoRaNetwork.nsRouter.ipv4.natTable typename "\"inet.networklayer.ipv4.Ipv4NatTable\""
par LoRaNetwork.nsRouter.ipv4.natTable networkProtocolModule "\"^.ip\""
par LoRaNetwork.nsRouter.ipv4.natTable config "<config/> at content:1"
par LoRaNetwork.nsRouter.ipv4.up typename "\"inet.common.MessageDispatcher\""
par LoRaNetwork.nsRouter.ipv4.up displayStringTextFormat "\"processed %p pk (%l)\""
par LoRaNetwork.nsRouter.ipv4.up forwardServiceRegistration true
par LoRaNetwork.nsRouter.ipv4.up forwardProtocolRegistration true
par LoRaNetwork.nsRouter.ipv4.igmp typename "\"inet.networklayer.ipv4.Igmpv2\""
par LoRaNetwork.nsRouter.ipv4.igmp interfaceTableModule "\"LoRaNetwork.nsRouter.interfaceTable\""
par LoRaNetwork.nsRouter.ipv4.igmp routingTableModule "\"LoRaNetwork.nsRouter.ipv4.routingTable\""
par LoRaNetwork.nsRouter.ipv4.igmp crcMode "\"declared\""
attr enum declared,computed
par LoRaNetwork.nsRouter.ipv4.igmp enabled true
par LoRaNetwork.nsRouter.ipv4.igmp robustnessVariable 2
par LoRaNetwork.nsRouter.ipv4.igmp queryInterval 125s
attr unit s
par LoRaNetwork.nsRouter.ipv4.igmp queryResponseInterval 10s
attr unit s
par LoRaNetwork.nsRouter.ipv4.igmp groupMembershipInterval 260s
attr unit s
par LoRaNetwork.nsRouter.ipv4.igmp otherQuerierPresentInterval 255s
attr unit s
par LoRaNetwork.nsRouter.ipv4.igmp startupQueryInterval 31.25s
attr unit s
par LoRaNetwork.nsRouter.ipv4.igmp startupQueryCount 2
par LoRaNetwork.nsRouter.ipv4.igmp lastMemberQueryInterval 1s
attr unit s
par LoRaNetwork.nsRouter.ipv4.igmp lastMemberQueryCount 2
par LoRaNetwork.nsRouter.ipv4.igmp unsolicitedReportInterval 10s
attr unit s
par LoRaNetwork.nsRouter.ipv4.icmp typename "\"inet.networklayer.ipv4.Icmp\""
par LoRaNetwork.nsRouter.ipv4.icmp interfaceTableModule "\"LoRaNetwork.nsRouter.interfaceTable\""
par LoRaNetwork.nsRouter.ipv4.icmp routingTableModule "\"LoRaNetwork.nsRouter.ipv4.routingTable\""
par LoRaNetwork.nsRouter.ipv4.icmp crcMode "\"declared\""
attr enum declared,computed
attr mutable ""
par LoRaNetwork.nsRouter.ipv4.icmp quoteLength 8B
attr mutable ""
attr unit B
par LoRaNetwork.nsRouter.ipv4.mp typename "\"inet.common.MessageDispatcher\""
par LoRaNetwork.nsRouter.ipv4.mp displayStringTextFormat "\"processed %p pk (%l)\""
par LoRaNetwork.nsRouter.ipv4.mp forwardServiceRegistration true
par LoRaNetwork.nsRouter.ipv4.mp forwardProtocolRegistration true
par LoRaNetwork.nsRouter.ipv4.ip typename "\"inet.networklayer.ipv4.Ipv4\""
par LoRaNetwork.nsRouter.ipv4.ip interfaceTableModule "\"LoRaNetwork.nsRouter.interfaceTable\""
par LoRaNetwork.nsRouter.ipv4.ip routingTableModule "\"LoRaNetwork.nsRouter.ipv4.routingTable\""
par LoRaNetwork.nsRouter.ipv4.ip arpModule "\"LoRaNetwork.nsRouter.ipv4.arp\""
par LoRaNetwork.nsRouter.ipv4.ip icmpModule "\"LoRaNetwork.nsRouter.ipv4.icmp\""
par LoRaNetwork.nsRouter.ipv4.ip crcMode "\"declared\""
attr enum declared,computed
par LoRaNetwork.nsRouter.ipv4.ip timeToLive 32
par LoRaNetwork.nsRouter.ipv4.ip multicastTimeToLive 32
par LoRaNetwork.nsRouter.ipv4.ip fragmentTimeout 60s
attr unit s
par LoRaNetwork.nsRouter.ipv4.ip limitedBroadcast false
par LoRaNetwork.nsRouter.ipv4.ip directBroadcastInterfaces "\"\""
scalar LoRaNetwork.nsRouter.ipv4.ip packetDropAddressResolutionFailed:count 0
attr interpolationmode none
attr recordingmode count
attr source packetDropReasonIsAddressResolutionFailed(packetDropped)
attr title "packet drop: address resolution failed, count"
scalar LoRaNetwork.nsRouter.ipv4.ip packetDropAddressResolutionFailed:sum(packetBytes) 0
attr interpolationmode none
attr recordingmode sum(packetBytes)
attr source packetDropReasonIsAddressResolutionFailed(packetDropped)
attr title "packet drop: address resolution failed, sum(packetBytes)"
scalar LoRaNetwork.nsRouter.ipv4.ip packetDropHopLimitReached:count 0
attr interpolationmode none
attr recordingmode count
attr source packetDropReasonIsHopLimitReached(packetDropped)
attr title "packet drop: hop limit reached, count"
scalar LoRaNetwork.nsRouter.ipv4.ip packetDropHopLimitReached:sum(packetBytes) 0
attr interpolationmode none
attr recordingmode sum(packetBytes)
attr source packetDropReasonIsHopLimitReached(packetDropped)
attr title "packet drop: hop limit reached, sum(packetBytes)"
scalar LoRaNetwork.nsRouter.ipv4.ip packetDropForwardingDisabled:count 0
attr interpolationmode none
attr recordingmode count
attr source packetDropReasonIsForwardingDisabled(packetDropped)
attr title "packet drop: forwarding disabled, count"
scalar LoRaNetwork.nsRouter.ipv4.ip packetDropForwardingDisabled:sum(packetBytes) 0
attr interpolationmode none
attr recordingmode sum(packetBytes)
attr source packetDropReasonIsForwardingDisabled(packetDropped)
attr title "packet drop: forwarding disabled, sum(packetBytes)"
scalar LoRaNetwork.nsRouter.ipv4.ip packetDropNoInterfaceFound:count 0
attr interpolationmode none
attr recordingmode count
attr source packetDropReasonIsNoInterfaceFound(packetDropped)
attr title "packet drop: no interface found, count"
scalar LoRaNetwork.nsRouter.ipv4.ip packetDropNoInterfaceFound:sum(packetBytes) 0
attr interpolationmode none
attr recordingmode sum(packetBytes)
attr source packetDropReasonIsNoInterfaceFound(packetDropped)
attr title "packet drop: no interface found, sum(packetBytes)"
scalar LoRaNetwork.nsRouter.ipv4.ip packetDropNoRouteFound:count 0
attr interpolationmode none
attr recordingmode count
attr source packetDropReasonIsNoRouteFound(packetDropped)
attr title "packet drop: no route found, count"
scalar LoRaNetwork.nsRouter.ipv4.ip packetDropNoRouteFound:sum(packetBytes) 0
attr interpolationmode none
attr recordingmode sum(packetBytes)
attr source packetDropReasonIsNoRouteFound(packetDropped)
attr title "packet drop: no route found, sum(packetBytes)"
scalar LoRaNetwork.nsRouter.ipv4.ip packetDropUndefined:count 0
attr interpolationmode none
attr recordingmode count
attr source packetDropReasonIsUndefined(packetDropped)
attr title "packet drop: undefined, count"
scalar LoRaNetwork.nsRouter.ipv4.ip packetDropUndefined:sum(packetBytes) 0
attr interpolationmode none
attr recordingmode sum(packetBytes)
attr source packetDropReasonIsUndefined(packetDropped)
attr title "packet drop: undefined, sum(packetBytes)"
par LoRaNetwork.nsRouter.ipv4.arp typename "\"inet.networklayer.arp.ipv4.Arp\""
par LoRaNetwork.nsRouter.ipv4.arp interfaceTableModule "\"LoRaNetwork.nsRouter.interfaceTable\""
par LoRaNetwork.nsRouter.ipv4.arp routingTableModule "\"LoRaNetwork.nsRouter.ipv4.routingTable\""
par LoRaNetwork.nsRouter.ipv4.arp retryTimeout 1s
attr unit s
par LoRaNetwork.nsRouter.ipv4.arp retryCount 3
par LoRaNetwork.nsRouter.ipv4.arp cacheTimeout 120s
attr unit s
par LoRaNetwork.nsRouter.ipv4.arp proxyArpInterfaces "\"*\""
scalar LoRaNetwork.nsRouter.ipv4.arp arpResolutionFailed:count 0
attr recordingmode count
attr title "ARP failed resolutions, count"
scalar LoRaNetwork.nsRouter.ipv4.arp arpResolutionCompleted:count 3350
attr recordingmode count
attr title "ARP completed resolutions, count"
scalar LoRaNetwork.nsRouter.ipv4.arp arpResolutionInitiated:count 3350
attr recordingmode count
attr title "ARP initiated resolutions, count"
scalar LoRaNetwork.nsRouter.ipv4.arp arpReplySent:count 0
attr recordingmode count
attr source arpReplySent
attr title "ARP replies sent, count"
scalar LoRaNetwork.nsRouter.ipv4.arp arpReplySent:sum(packetBytes) 0
attr recordingmode sum(packetBytes)
attr source arpReplySent
attr title "ARP replies sent, sum(packetBytes)"
scalar LoRaNetwork.nsRouter.ipv4.arp arpRequestSent:count 3350
attr recordingmode count
attr source arpRequestSent
attr title "ARP request sent, count"
scalar LoRaNetwork.nsRouter.ipv4.arp arpRequestSent:sum(packetBytes) 93800
attr recordingmode sum(packetBytes)
attr source arpRequestSent
attr title "ARP request sent, sum(packetBytes)"
par LoRaNetwork.nsRouter.ipv4.lp typename "\"inet.common.MessageDispatcher\""
par LoRaNetwork.nsRouter.ipv4.lp displayStringTextFormat "\"processed %p pk (%l)\""
par LoRaNetwork.nsRouter.ipv4.lp forwardServiceRegistration true
par LoRaNetwork.nsRouter.ipv4.lp forwardProtocolRegistration true
par LoRaNetwork.nsRouter.ipv4 typename "\"inet.networklayer.ipv4.Ipv4NetworkLayer\""
par LoRaNetwork.nsRouter.ipv4 forwarding true
par LoRaNetwork.nsRouter.ipv4 multicastForwarding false
par LoRaNetwork.nsRouter.ipv4 interfaceTableModule "\"LoRaNetwork.nsRouter.interfaceTable\""
par LoRaNetwork.nsRouter.ipv4 displayStringTextFormat "\"%i\""
par LoRaNetwork.nsRouter.nl typename "\"inet.common.MessageDispatcher\""
par LoRaNetwork.nsRouter.nl displayStringTextFormat "\"processed %p pk (%l)\""
par LoRaNetwork.nsRouter.nl forwardServiceRegistration true
par LoRaNetwork.nsRouter.nl forwardProtocolRegistration true
par LoRaNetwork.nsRouter.tn typename "\"inet.common.MessageDispatcher\""
par LoRaNetwork.nsRouter.tn displayStringTextFormat "\"processed %p pk (%l)\""
par LoRaNetwork.nsRouter.tn forwardServiceRegistration true
par LoRaNetwork.nsRouter.tn forwardProtocolRegistration true
par LoRaNetwork.nsRouter.at typename "\"inet.common.MessageDispatcher\""
par LoRaNetwork.nsRouter.at displayStringTextFormat "\"processed %p pk (%l)\""
par LoRaNetwork.nsRouter.at forwardServiceRegistration true
par LoRaNetwork.nsRouter.at forwardProtocolRegistration true
par LoRaNetwork.nsRouter typename "\"inet.node.inet.Router\""
par LoRaNetwork.nsRouter hasStatus false
par LoRaNetwork.nsRouter osgModel "\"\""
par LoRaNetwork.nsRouter osgModelColor "\"\""
par LoRaNetwork.nsRouter canvasImage "\"\""
par LoRaNetwork.nsRouter canvasImageColor "\"\""
par LoRaNetwork.nsRouter recordPcap false
par LoRaNetwork.nsRouter numPcapRecorders 0
par LoRaNetwork.nsRouter numLoInterfaces 1
par LoRaNetwork.nsRouter numWlanInterfaces 0
par LoRaNetwork.nsRouter numEthInterfaces 0
par LoRaNetwork.nsRouter numPppInterfaces 0
par LoRaNetwork.nsRouter numTunInterfaces 0
par LoRaNetwork.nsRouter numVirtInterfaces 0
par LoRaNetwork.nsRouter fcsMode "\"declared\""
attr enum declared,computed
par LoRaNetwork.nsRouter hasIpv4 true
par LoRaNetwork.nsRouter hasIpv6 false
par LoRaNetwork.nsRouter hasGn false
par LoRaNetwork.nsRouter forwarding true
par LoRaNetwork.nsRouter multicastForwarding false
par LoRaNetwork.nsRouter hasUdp false
par LoRaNetwork.nsRouter hasTcp false
par LoRaNetwork.nsRouter hasSctp false
par LoRaNetwork.nsRouter numApps 0
par LoRaNetwork.nsRouter hasEigrp false
par LoRaNetwork.nsRouter hasOspf false
par LoRaNetwork.nsRouter hasRip false
par LoRaNetwork.nsRouter hasBgp false
par LoRaNetwork.nsRouter hasPim false
par LoRaNetwork.nsRouter hasDhcp false
par LoRaNetwork.physicalEnvironment typename "\"inet.environment.common.PhysicalEnvironment\""
par LoRaNetwork.physicalEnvironment coordinateSystemModule "\"\""
par LoRaNetwork.physicalEnvironment temperature 293K
attr unit K
par LoRaNetwork.physicalEnvironment spaceMinX "nan m"
attr unit m
par LoRaNetwork.physicalEnvironment spaceMinY "nan m"
attr unit m
par LoRaNetwork.physicalEnvironment spaceMinZ "nan m"
attr unit m
par LoRaNetwork.physicalEnvironment spaceMaxX "nan m"
attr unit m
par LoRaNetwork.physicalEnvironment spaceMaxY "nan m"
attr unit m
par LoRaNetwork.physicalEnvironment spaceMaxZ "nan m"
attr unit m
par LoRaNetwork.physicalEnvironment config "<config/> at content:1"
par LoRaNetwork typename "\"loraSimulation.LoRaNetwork\""
par LoRaNetwork numberOfNodes 10
par LoRaNetwork numberOfGateways 1
par LoRaNetwork networkSizeX 500
par LoRaNetwork networkSizeY 500

