file 601858379 1682001327                                       
version 3
run General-1-20230420-16:34:44-14298
attr configname General
attr datetime 20230420-16:34:44
attr datetimef 20230420-163444
attr experiment General
attr inifile n10-gw1.ini
attr iterationvars "$0=\"avg\""
attr iterationvarsd avg
attr iterationvarsf avg-
attr measurement "$0=\"avg\""
attr network flora.simulations.LoRaNetworkTest
attr processid 14298
attr repetition 1
attr replication #1
attr resultdir results
attr runnumber 1
attr seedset 1
config image-path ../../../../../Downloads/omnetpp-6.0.1/samples/inet4.4/images
config network flora.simulations.LoRaNetworkTest
config output-vector-file ../results/n10-gw1-s1.ini.vec
config record-eventlog true
config **.maxTransmissionDuration 4s
config **.energyDetection -110dBm
config **.vector-recording true
config rng-class cMersenneTwister
config **.loRaGW[*].numUdpApps 1
config **.loRaGW[0].packetForwarder.localPort 2000
config **.loRaGW[0].packetForwarder.destPort 1000
config **.loRaGW[0].packetForwarder.destAddresses "\"networkServer\""
config **.loRaGW[0].packetForwarder.indexNumber 0
config **.networkServer.numApps 1
config **.networkServer.**.evaluateADRinServer true
config **.networkServer.app[0].typename NetworkServerApp
config **.networkServer.app[0].destAddresses "\"loRaGW[0]\""
config **.networkServer.app[0].destPort 2000
config **.networkServer.app[0].localPort 1000
config **.networkServer.app[0].adrMethod "\"avg\""
config **.numberOfPacketsToSend 0
config sim-time-limit 1d
config simtime-resolution -11
config repeat 5
config **.timeToFirstPacket exponential(1000s)
config **.timeToNextPacket exponential(1000s)
config **.alohaChannelModel false
config **.loRaNodes[*].**.initFromDisplayString false
config **.loRaNodes[*].**.evaluateADRinNode true
config **.loRaNodes[*].**initialLoRaBW "125 kHz"
config **.loRaNodes[*].**initialLoRaCR 4
config **.loRaNodes[*].numApps 1
config **.loRaNodes[*].app[0].typename SimpleLoRaApp
config **.LoRaGWNic.radio.iAmGateway true
config **.loRaGW[*].**.initFromDisplayString false
config **.loRaNodes[*].LoRaNic.radio.energyConsumer.typename LoRaEnergyConsumer
config **.loRaNodes[*].**.energySourceModule "\"^.IdealEpEnergyStorage\""
config **.loRaNodes[*].LoRaNic.radio.energyConsumer.configFile "xmldoc(\"../energyConsumptionParameters.xml\")"
config **.sigma 3.57
config **.constraintAreaMinX 0m
config **.constraintAreaMinY 0m
config **.constraintAreaMinZ 0m
config **.constraintAreaMaxZ 0m
config LoRaNetworkTest.**.radio.separateTransmissionParts false
config LoRaNetworkTest.**.radio.separateReceptionParts false
config **.ipv4Delayer.config "xmldoc(\"../cloudDelays.xml\")"
config **.radio.radioMediumModule "\"LoRaMedium\""
config **.LoRaMedium.pathLossType "\"LoRaLogNormalShadowing\""
config **.minInterferenceTime 0s
config **.displayAddresses false
config **.numberOfNodes 10
config **.numberOfGateways 1
config **.constraintAreaMaxX 2376.0m
config **.constraintAreaMaxY 1090.0m
config **.loRaGW[0].**.initialX 544.00m
config **.loRaGW[0].**.initialY 544.00m
config output-scalar-file ../results/n10-gw1-s1.ini.sca
config **.loRaNodes[0].**.initialX 590.63m
config **.loRaNodes[0].**.initialY 529.08m
config **.loRaNodes[1].**.initialX 488.29m
config **.loRaNodes[1].**.initialY 504.24m
config **.loRaNodes[2].**.initialX 561.60m
config **.loRaNodes[2].**.initialY 570.25m
config **.loRaNodes[3].**.initialX 556.86m
config **.loRaNodes[3].**.initialY 529.63m
config **.loRaNodes[4].**.initialX 527.85m
config **.loRaNodes[4].**.initialY 484.11m
config **.loRaNodes[5].**.initialX 555.27m
config **.loRaNodes[5].**.initialY 541.84m
config **.loRaNodes[6].**.initialX 561.11m
config **.loRaNodes[6].**.initialY 614.96m
config **.loRaNodes[7].**.initialX 557.86m
config **.loRaNodes[7].**.initialY 575.17m
config **.loRaNodes[8].**.initialX 500.41m
config **.loRaNodes[8].**.initialY 537.16m
config **.loRaNodes[9].**.initialX 530.53m
config **.loRaNodes[9].**.initialY 594.82m
config **.loRaNodes[0].**initialLoRaSF 8
config **.loRaNodes[0].**initialLoRaTP 8dBm
config **.loRaNodes[1].**initialLoRaSF 9
config **.loRaNodes[1].**initialLoRaTP 8dBm
config **.loRaNodes[2].**initialLoRaSF 7
config **.loRaNodes[2].**initialLoRaTP 8dBm
config **.loRaNodes[3].**initialLoRaSF 7
config **.loRaNodes[3].**initialLoRaTP 2dBm
config **.loRaNodes[4].**initialLoRaSF 8
config **.loRaNodes[4].**initialLoRaTP 8dBm
config **.loRaNodes[5].**initialLoRaSF 7
config **.loRaNodes[5].**initialLoRaTP 2dBm
config **.loRaNodes[6].**initialLoRaSF 9
config **.loRaNodes[6].**initialLoRaTP 8dBm
config **.loRaNodes[7].**initialLoRaSF 7
config **.loRaNodes[7].**initialLoRaTP 8dBm
config **.loRaNodes[8].**initialLoRaSF 7
config **.loRaNodes[8].**initialLoRaTP 8dBm
config **.loRaNodes[9].**initialLoRaSF 8
config **.loRaNodes[9].**initialLoRaTP 8dBm

vector 0 LoRaNetworkTest.loRaGW[0].udp passedUpPk:vector(count) ETV
attr interpolationmode none
attr recordingmode vector(count)
attr source packetSentToUpper
attr title "packets passed up, count"
vector 1 LoRaNetworkTest.loRaGW[0].udp droppedPkWrongPort:vector(count) ETV
attr interpolationmode none
attr recordingmode vector(count)
attr source packetDropReasonIsNoPortFound(packetDropped)
attr title "packets dropped (wrong port), count"
vector 2 LoRaNetworkTest.loRaGW[0].udp droppedPkBadChecksum:vector(count) ETV
attr interpolationmode none
attr recordingmode vector(count)
attr source packetDropReasonIsIncorrectlyReceived(packetDropped)
attr title "packets dropped (checksum error), count"
vector 3 LoRaNetworkTest.networkServer.udp passedUpPk:vector(count) ETV
attr interpolationmode none
attr recordingmode vector(count)
attr source packetSentToUpper
attr title "packets passed up, count"
vector 4 LoRaNetworkTest.networkServer.udp droppedPkWrongPort:vector(count) ETV
attr interpolationmode none
attr recordingmode vector(count)
attr source packetDropReasonIsNoPortFound(packetDropped)
attr title "packets dropped (wrong port), count"
vector 5 LoRaNetworkTest.networkServer.udp droppedPkBadChecksum:vector(count) ETV
attr interpolationmode none
attr recordingmode vector(count)
attr source packetDropReasonIsIncorrectlyReceived(packetDropped)
attr title "packets dropped (checksum error), count"
vector 6 LoRaNetworkTest.internetCloud.ppp[0].ppp transmissionState:vector ETV
attr interpolationmode sample-hold
attr recordingmode vector
attr source transmissionStateChanged
attr title "tx state"
vector 7 LoRaNetworkTest.internetCloud.ppp[1].ppp transmissionState:vector ETV
attr interpolationmode sample-hold
attr recordingmode vector
attr source transmissionStateChanged
attr title "tx state"
vector 8 LoRaNetworkTest.gwRouter[0].ppp[0].ppp transmissionState:vector ETV
attr interpolationmode sample-hold
attr recordingmode vector
attr source transmissionStateChanged
attr title "tx state"
vector 9 LoRaNetworkTest.nsRouter.ppp[0].ppp transmissionState:vector ETV
attr interpolationmode sample-hold
attr recordingmode vector
attr source transmissionStateChanged
attr title "tx state"
vector 10 LoRaNetworkTest.loRaNodes[0].LoRaNic.radio.IdealEpEnergyStorage powerConsumption:vector ETV
attr interpolationmode sample-hold
attr recordingmode vector
attr source powerConsumptionChanged
attr title "Power consumption"
vector 11 LoRaNetworkTest.loRaNodes[1].LoRaNic.radio.IdealEpEnergyStorage powerConsumption:vector ETV
attr interpolationmode sample-hold
attr recordingmode vector
attr source powerConsumptionChanged
attr title "Power consumption"
vector 12 LoRaNetworkTest.loRaNodes[2].LoRaNic.radio.IdealEpEnergyStorage powerConsumption:vector ETV
attr interpolationmode sample-hold
attr recordingmode vector
attr source powerConsumptionChanged
attr title "Power consumption"
vector 13 LoRaNetworkTest.loRaNodes[3].LoRaNic.radio.IdealEpEnergyStorage powerConsumption:vector ETV
attr interpolationmode sample-hold
attr recordingmode vector
attr source powerConsumptionChanged
attr title "Power consumption"
vector 14 LoRaNetworkTest.loRaNodes[4].LoRaNic.radio.IdealEpEnergyStorage powerConsumption:vector ETV
attr interpolationmode sample-hold
attr recordingmode vector
attr source powerConsumptionChanged
attr title "Power consumption"
vector 15 LoRaNetworkTest.loRaNodes[5].LoRaNic.radio.IdealEpEnergyStorage powerConsumption:vector ETV
attr interpolationmode sample-hold
attr recordingmode vector
attr source powerConsumptionChanged
attr title "Power consumption"
vector 16 LoRaNetworkTest.loRaNodes[6].LoRaNic.radio.IdealEpEnergyStorage powerConsumption:vector ETV
attr interpolationmode sample-hold
attr recordingmode vector
attr source powerConsumptionChanged
attr title "Power consumption"
vector 17 LoRaNetworkTest.loRaNodes[7].LoRaNic.radio.IdealEpEnergyStorage powerConsumption:vector ETV
attr interpolationmode sample-hold
attr recordingmode vector
attr source powerConsumptionChanged
attr title "Power consumption"
vector 18 LoRaNetworkTest.loRaNodes[8].LoRaNic.radio.IdealEpEnergyStorage powerConsumption:vector ETV
attr interpolationmode sample-hold
attr recordingmode vector
attr source powerConsumptionChanged
attr title "Power consumption"
vector 19 LoRaNetworkTest.loRaNodes[9].LoRaNic.radio.IdealEpEnergyStorage powerConsumption:vector ETV
attr interpolationmode sample-hold
attr recordingmode vector
attr source powerConsumptionChanged
attr title "Power consumption"
vector 20 LoRaNetworkTest.loRaNodes[0].LoRaNic.radio radioMode:vector ETV
attr interpolationmode sample-hold
attr recordingmode vector
attr source radioModeChanged
attr title "Radio mode"
vector 21 LoRaNetworkTest.loRaNodes[0].LoRaNic.radio.energyConsumer powerConsumption:vector ETV
attr interpolationmode sample-hold
attr recordingmode vector
attr source powerConsumptionChanged
attr title "Power consumption"
vector 22 LoRaNetworkTest.loRaNodes[1].LoRaNic.radio radioMode:vector ETV
attr interpolationmode sample-hold
attr recordingmode vector
attr source radioModeChanged
attr title "Radio mode"
vector 23 LoRaNetworkTest.loRaNodes[1].LoRaNic.radio.energyConsumer powerConsumption:vector ETV
attr interpolationmode sample-hold
attr recordingmode vector
attr source powerConsumptionChanged
attr title "Power consumption"
vector 24 LoRaNetworkTest.loRaNodes[2].LoRaNic.radio radioMode:vector ETV
attr interpolationmode sample-hold
attr recordingmode vector
attr source radioModeChanged
attr title "Radio mode"
vector 25 LoRaNetworkTest.loRaNodes[2].LoRaNic.radio.energyConsumer powerConsumption:vector ETV
attr interpolationmode sample-hold
attr recordingmode vector
attr source powerConsumptionChanged
attr title "Power consumption"
vector 26 LoRaNetworkTest.loRaNodes[3].LoRaNic.radio radioMode:vector ETV
attr interpolationmode sample-hold
attr recordingmode vector
attr source radioModeChanged
attr title "Radio mode"
vector 27 LoRaNetworkTest.loRaNodes[3].LoRaNic.radio.energyConsumer powerConsumption:vector ETV
attr interpolationmode sample-hold
attr recordingmode vector
attr source powerConsumptionChanged
attr title "Power consumption"
vector 28 LoRaNetworkTest.loRaNodes[4].LoRaNic.radio radioMode:vector ETV
attr interpolationmode sample-hold
attr recordingmode vector
attr source radioModeChanged
attr title "Radio mode"
vector 29 LoRaNetworkTest.loRaNodes[4].LoRaNic.radio.energyConsumer powerConsumption:vector ETV
attr interpolationmode sample-hold
attr recordingmode vector
attr source powerConsumptionChanged
attr title "Power consumption"
vector 30 LoRaNetworkTest.loRaNodes[5].LoRaNic.radio radioMode:vector ETV
attr interpolationmode sample-hold
attr recordingmode vector
attr source radioModeChanged
attr title "Radio mode"
vector 31 LoRaNetworkTest.loRaNodes[5].LoRaNic.radio.energyConsumer powerConsumption:vector ETV
attr interpolationmode sample-hold
attr recordingmode vector
attr source powerConsumptionChanged
attr title "Power consumption"
vector 32 LoRaNetworkTest.loRaNodes[6].LoRaNic.radio radioMode:vector ETV
attr interpolationmode sample-hold
attr recordingmode vector
attr source radioModeChanged
attr title "Radio mode"
vector 33 LoRaNetworkTest.loRaNodes[6].LoRaNic.radio.energyConsumer powerConsumption:vector ETV
attr interpolationmode sample-hold
attr recordingmode vector
attr source powerConsumptionChanged
attr title "Power consumption"
vector 34 LoRaNetworkTest.loRaNodes[7].LoRaNic.radio radioMode:vector ETV
attr interpolationmode sample-hold
attr recordingmode vector
attr source radioModeChanged
attr title "Radio mode"
vector 35 LoRaNetworkTest.loRaNodes[7].LoRaNic.radio.energyConsumer powerConsumption:vector ETV
attr interpolationmode sample-hold
attr recordingmode vector
attr source powerConsumptionChanged
attr title "Power consumption"
vector 36 LoRaNetworkTest.loRaNodes[8].LoRaNic.radio radioMode:vector ETV
attr interpolationmode sample-hold
attr recordingmode vector
attr source radioModeChanged
attr title "Radio mode"
vector 37 LoRaNetworkTest.loRaNodes[8].LoRaNic.radio.energyConsumer powerConsumption:vector ETV
attr interpolationmode sample-hold
attr recordingmode vector
attr source powerConsumptionChanged
attr title "Power consumption"
vector 38 LoRaNetworkTest.loRaNodes[9].LoRaNic.radio radioMode:vector ETV
attr interpolationmode sample-hold
attr recordingmode vector
attr source radioModeChanged
attr title "Radio mode"
vector 39 LoRaNetworkTest.loRaNodes[9].LoRaNic.radio.energyConsumer powerConsumption:vector ETV
attr interpolationmode sample-hold
attr recordingmode vector
attr source powerConsumptionChanged
attr title "Power consumption"
vector 40 LoRaNetworkTest.loRaGW[0].LoRaGWNic.radio radioMode:vector ETV
attr interpolationmode sample-hold
attr recordingmode vector
attr source radioModeChanged
attr title "Radio mode"
vector 41 LoRaNetworkTest.loRaGW[0].LoRaGWNic.radio receptionState:vector ETV
attr interpolationmode sample-hold
attr recordingmode vector
attr source receptionStateChanged
attr title "Radio reception state"
vector 42 LoRaNetworkTest.loRaGW[0].LoRaGWNic.radio transmissionState:vector ETV
attr interpolationmode sample-hold
attr recordingmode vector
attr source transmissionStateChanged
attr title "Radio transmission state"
vector 43 LoRaNetworkTest.loRaNodes[1].app[0] "SF Vector" ETV
vector 44 LoRaNetworkTest.loRaNodes[1].app[0] "TP Vector" ETV
vector 45 LoRaNetworkTest.loRaNodes[1].LoRaNic.queue incomingPacketLengths:vector ETV
attr interpolationmode none
attr recordingmode vector
attr source packetLength(packetPushStarted)
attr title "incoming packet lengths"
attr unit b
vector 46 LoRaNetworkTest.loRaNodes[1].LoRaNic.queue incomingDataRate:vector ETV
attr interpolationmode linear
attr recordingmode vector
attr source throughput(packetPushStarted)
attr title "incoming datarate"
attr unit bps
vector 47 LoRaNetworkTest.loRaNodes[1].LoRaNic.queue queueingTime:vector ETV
attr interpolationmode none
attr recordingmode vector
attr source queueingTime(packetPulled)
attr title "queueing times"
attr unit s
vector 48 LoRaNetworkTest.loRaNodes[1].LoRaNic.queue outgoingPacketLengths:vector ETV
attr interpolationmode none
attr recordingmode vector
attr source packetLength(packetPulled)
attr title "outgoing packet lengths"
attr unit b
vector 49 LoRaNetworkTest.loRaNodes[1].LoRaNic.queue outgoingDataRate:vector ETV
attr interpolationmode linear
attr recordingmode vector
attr source throughput(packetPulled)
attr title "outgoing datarate"
attr unit bps
vector 50 LoRaNetworkTest.loRaNodes[1].LoRaNic.radio.IdealEpEnergyStorage residualEnergyCapacity:vector ETV
attr interpolationmode linear
attr recordingmode vector
attr source residualEnergyCapacityChanged
attr title "Residual energy capacity"
vector 51 LoRaNetworkTest.loRaNodes[1].LoRaNic.radio transmissionState:vector ETV
attr interpolationmode sample-hold
attr recordingmode vector
attr source transmissionStateChanged
attr title "Radio transmission state"
vector 52 LoRaNetworkTest.loRaNodes[1].LoRaNic.queue queueLength:vector ETV
attr autoWarmupFilter false
attr interpolationmode sample-hold
attr recordingmode vector
attr source "warmup(atomic(constant0(packetPushEnded) + count(packetPushStarted) - count(packetPulled) - count(packetRemoved) - count(packetDropped)))"
attr title "queue length"
attr unit pk
vector 53 LoRaNetworkTest.loRaNodes[1].LoRaNic.queue queueBitLength:vector ETV
attr autoWarmupFilter false
attr interpolationmode sample-hold
attr recordingmode vector
attr source "warmup(atomic(constant0(packetPushEnded) + sum(packetLength(packetPushStarted)) - sum(packetLength(packetPulled)) - sum(packetLength(packetRemoved)) - sum(packetLength(packetDropped))))"
attr title "queue bit length"
attr unit b
vector 54 LoRaNetworkTest.loRaGW[0].udp packetSent:vector(packetBytes) ETV
attr interpolationmode none
attr recordingmode vector(packetBytes)
attr source packetSent
attr title "packets sent, packetBytes"
vector 55 LoRaNetworkTest.loRaGW[0].ipv4.arp arpRequestSent:vector(packetBytes) ETV
attr recordingmode vector(packetBytes)
attr source arpRequestSent
attr title "ARP request sent, packetBytes"
vector 56 LoRaNetworkTest.loRaGW[0].ethernet encapPk:vector(packetBytes) ETV
attr interpolationmode none
attr recordingmode vector(packetBytes)
attr source encapPk
attr title "packets encapsulated, packetBytes"
vector 57 LoRaNetworkTest.loRaGW[0].eth[0].queue incomingPacketLengths:vector ETV
attr interpolationmode none
attr recordingmode vector
attr source packetLength(packetPushStarted)
attr title "incoming packet lengths"
attr unit b
vector 58 LoRaNetworkTest.loRaGW[0].eth[0].queue incomingDataRate:vector ETV
attr interpolationmode linear
attr recordingmode vector
attr source throughput(packetPushStarted)
attr title "incoming datarate"
attr unit bps
vector 59 LoRaNetworkTest.loRaGW[0].eth[0].queue queueingTime:vector ETV
attr interpolationmode none
attr recordingmode vector
attr source queueingTime(packetPulled)
attr title "queueing times"
attr unit s
vector 60 LoRaNetworkTest.loRaGW[0].eth[0].queue outgoingPacketLengths:vector ETV
attr interpolationmode none
attr recordingmode vector
attr source packetLength(packetPulled)
attr title "outgoing packet lengths"
attr unit b
vector 61 LoRaNetworkTest.loRaGW[0].eth[0].queue outgoingDataRate:vector ETV
attr interpolationmode linear
attr recordingmode vector
attr source throughput(packetPulled)
attr title "outgoing datarate"
attr unit bps
vector 62 LoRaNetworkTest.loRaGW[0].eth[0].mac packetReceivedFromUpper:vector(packetBytes) ETV
attr interpolationmode none
attr recordingmode vector(packetBytes)
attr source packetReceivedFromUpper
attr title "packet bytes from higher layer, packetBytes"
vector 63 LoRaNetworkTest.loRaGW[0].eth[0].queue queueLength:vector ETV
attr autoWarmupFilter false
attr interpolationmode sample-hold
attr recordingmode vector
attr source "warmup(atomic(constant0(packetPushEnded) + count(packetPushStarted) - count(packetPulled) - count(packetRemoved) - count(packetDropped)))"
attr title "queue length"
attr unit pk
vector 64 LoRaNetworkTest.loRaGW[0].eth[0].queue queueBitLength:vector ETV
attr autoWarmupFilter false
attr interpolationmode sample-hold
attr recordingmode vector
attr source "warmup(atomic(constant0(packetPushEnded) + sum(packetLength(packetPushStarted)) - sum(packetLength(packetPulled)) - sum(packetLength(packetRemoved)) - sum(packetLength(packetDropped))))"
attr title "queue bit length"
attr unit b
vector 65 LoRaNetworkTest.loRaGW[0].eth[0].mac txPk:vector(packetBytes) ETV
attr interpolationmode none
attr recordingmode vector(packetBytes)
attr source packetSentToLower
attr title "packets transmitted, packetBytes"
vector 66 LoRaNetworkTest.gwRouter[0].eth[0].mac rxPkOk:vector(packetBytes) ETV
attr interpolationmode none
attr recordingmode vector(packetBytes)
attr source rxPkOk
attr title "packets received OK, packetBytes"
vector 67 LoRaNetworkTest.gwRouter[0].eth[0].mac passedUpPk:vector(packetBytes) ETV
attr interpolationmode none
attr recordingmode vector(packetBytes)
attr source packetSentToUpper
attr title "packets passed to higher layer, packetBytes"
vector 68 LoRaNetworkTest.gwRouter[0].ethernet decapPk:vector(packetBytes) ETV
attr interpolationmode none
attr recordingmode vector(packetBytes)
attr source decapPk
attr title "packets decapsulated, packetBytes"
vector 69 LoRaNetworkTest.gwRouter[0].ipv4.arp arpReplySent:vector(packetBytes) ETV
attr recordingmode vector(packetBytes)
attr source arpReplySent
attr title "ARP replies sent, packetBytes"
vector 70 LoRaNetworkTest.gwRouter[0].ethernet encapPk:vector(packetBytes) ETV
attr interpolationmode none
attr recordingmode vector(packetBytes)
attr source encapPk
attr title "packets encapsulated, packetBytes"
vector 71 LoRaNetworkTest.gwRouter[0].eth[0].queue incomingPacketLengths:vector ETV
attr interpolationmode none
attr recordingmode vector
attr source packetLength(packetPushStarted)
attr title "incoming packet lengths"
attr unit b
vector 72 LoRaNetworkTest.gwRouter[0].eth[0].queue incomingDataRate:vector ETV
attr interpolationmode linear
attr recordingmode vector
attr source throughput(packetPushStarted)
attr title "incoming datarate"
attr unit bps
vector 73 LoRaNetworkTest.gwRouter[0].eth[0].queue queueingTime:vector ETV
attr interpolationmode none
attr recordingmode vector
attr source queueingTime(packetPulled)
attr title "queueing times"
attr unit s
vector 74 LoRaNetworkTest.gwRouter[0].eth[0].queue outgoingPacketLengths:vector ETV
attr interpolationmode none
attr recordingmode vector
attr source packetLength(packetPulled)
attr title "outgoing packet lengths"
attr unit b
vector 75 LoRaNetworkTest.gwRouter[0].eth[0].queue outgoingDataRate:vector ETV
attr interpolationmode linear
attr recordingmode vector
attr source throughput(packetPulled)
attr title "outgoing datarate"
attr unit bps
vector 76 LoRaNetworkTest.gwRouter[0].eth[0].mac packetReceivedFromUpper:vector(packetBytes) ETV
attr interpolationmode none
attr recordingmode vector(packetBytes)
attr source packetReceivedFromUpper
attr title "packet bytes from higher layer, packetBytes"
vector 77 LoRaNetworkTest.gwRouter[0].eth[0].queue queueLength:vector ETV
attr autoWarmupFilter false
attr interpolationmode sample-hold
attr recordingmode vector
attr source "warmup(atomic(constant0(packetPushEnded) + count(packetPushStarted) - count(packetPulled) - count(packetRemoved) - count(packetDropped)))"
attr title "queue length"
attr unit pk
vector 78 LoRaNetworkTest.gwRouter[0].eth[0].queue queueBitLength:vector ETV
attr autoWarmupFilter false
attr interpolationmode sample-hold
attr recordingmode vector
attr source "warmup(atomic(constant0(packetPushEnded) + sum(packetLength(packetPushStarted)) - sum(packetLength(packetPulled)) - sum(packetLength(packetRemoved)) - sum(packetLength(packetDropped))))"
attr title "queue bit length"
attr unit b
vector 79 LoRaNetworkTest.gwRouter[0].eth[0].mac txPk:vector(packetBytes) ETV
attr interpolationmode none
attr recordingmode vector(packetBytes)
attr source packetSentToLower
attr title "packets transmitted, packetBytes"
vector 80 LoRaNetworkTest.loRaGW[0].eth[0].mac rxPkOk:vector(packetBytes) ETV
attr interpolationmode none
attr recordingmode vector(packetBytes)
attr source rxPkOk
attr title "packets received OK, packetBytes"
vector 81 LoRaNetworkTest.loRaGW[0].eth[0].mac passedUpPk:vector(packetBytes) ETV
attr interpolationmode none
attr recordingmode vector(packetBytes)
attr source packetSentToUpper
attr title "packets passed to higher layer, packetBytes"
vector 82 LoRaNetworkTest.loRaGW[0].ethernet decapPk:vector(packetBytes) ETV
attr interpolationmode none
attr recordingmode vector(packetBytes)
attr source decapPk
attr title "packets decapsulated, packetBytes"
vector 83 LoRaNetworkTest.gwRouter[0].ppp[0].queue incomingPacketLengths:vector ETV
attr interpolationmode none
attr recordingmode vector
attr source packetLength(packetPushStarted)
attr title "incoming packet lengths"
attr unit b
vector 84 LoRaNetworkTest.gwRouter[0].ppp[0].queue incomingDataRate:vector ETV
attr interpolationmode linear
attr recordingmode vector
attr source throughput(packetPushStarted)
attr title "incoming datarate"
attr unit bps
vector 85 LoRaNetworkTest.gwRouter[0].ppp[0].queue queueingTime:vector ETV
attr interpolationmode none
attr recordingmode vector
attr source queueingTime(packetPulled)
attr title "queueing times"
attr unit s
vector 86 LoRaNetworkTest.gwRouter[0].ppp[0].queue outgoingPacketLengths:vector ETV
attr interpolationmode none
attr recordingmode vector
attr source packetLength(packetPulled)
attr title "outgoing packet lengths"
attr unit b
vector 87 LoRaNetworkTest.gwRouter[0].ppp[0].queue outgoingDataRate:vector ETV
attr interpolationmode linear
attr recordingmode vector
attr source throughput(packetPulled)
attr title "outgoing datarate"
attr unit bps
vector 88 LoRaNetworkTest.gwRouter[0].ppp[0].ppp txPk:vector(packetBytes) ETV
attr interpolationmode none
attr recordingmode vector(packetBytes)
attr source packetSentToLower
attr title "packets transmitted, packetBytes"
vector 89 LoRaNetworkTest.gwRouter[0].ppp[0].queue queueLength:vector ETV
attr autoWarmupFilter false
attr interpolationmode sample-hold
attr recordingmode vector
attr source "warmup(atomic(constant0(packetPushEnded) + count(packetPushStarted) - count(packetPulled) - count(packetRemoved) - count(packetDropped)))"
attr title "queue length"
attr unit pk
vector 90 LoRaNetworkTest.gwRouter[0].ppp[0].queue queueBitLength:vector ETV
attr autoWarmupFilter false
attr interpolationmode sample-hold
attr recordingmode vector
attr source "warmup(atomic(constant0(packetPushEnded) + sum(packetLength(packetPushStarted)) - sum(packetLength(packetPulled)) - sum(packetLength(packetRemoved)) - sum(packetLength(packetDropped))))"
attr title "queue bit length"
attr unit b
vector 91 LoRaNetworkTest.internetCloud.ppp[1].ppp rxPkOk:vector(packetBytes) ETV
attr interpolationmode none
attr recordingmode vector(packetBytes)
attr source rxPkOk
attr title "packets received OK, packetBytes"
vector 92 LoRaNetworkTest.internetCloud.ppp[1].ppp passedUpPk:vector(packetBytes) ETV
attr interpolationmode none
attr recordingmode vector(packetBytes)
attr source packetSentToUpper
attr title "packets passed to higher layer, packetBytes"
vector 93 LoRaNetworkTest.internetCloud.ppp[0].queue incomingPacketLengths:vector ETV
attr interpolationmode none
attr recordingmode vector
attr source packetLength(packetPushStarted)
attr title "incoming packet lengths"
attr unit b
vector 94 LoRaNetworkTest.internetCloud.ppp[0].queue incomingDataRate:vector ETV
attr interpolationmode linear
attr recordingmode vector
attr source throughput(packetPushStarted)
attr title "incoming datarate"
attr unit bps
vector 95 LoRaNetworkTest.internetCloud.ppp[0].queue queueingTime:vector ETV
attr interpolationmode none
attr recordingmode vector
attr source queueingTime(packetPulled)
attr title "queueing times"
attr unit s
vector 96 LoRaNetworkTest.internetCloud.ppp[0].queue outgoingPacketLengths:vector ETV
attr interpolationmode none
attr recordingmode vector
attr source packetLength(packetPulled)
attr title "outgoing packet lengths"
attr unit b
vector 97 LoRaNetworkTest.internetCloud.ppp[0].queue outgoingDataRate:vector ETV
attr interpolationmode linear
attr recordingmode vector
attr source throughput(packetPulled)
attr title "outgoing datarate"
attr unit bps
vector 98 LoRaNetworkTest.internetCloud.ppp[0].ppp txPk:vector(packetBytes) ETV
attr interpolationmode none
attr recordingmode vector(packetBytes)
attr source packetSentToLower
attr title "packets transmitted, packetBytes"
vector 99 LoRaNetworkTest.internetCloud.ppp[0].queue queueLength:vector ETV
attr autoWarmupFilter false
attr interpolationmode sample-hold
attr recordingmode vector
attr source "warmup(atomic(constant0(packetPushEnded) + count(packetPushStarted) - count(packetPulled) - count(packetRemoved) - count(packetDropped)))"
attr title "queue length"
attr unit pk
vector 100 LoRaNetworkTest.internetCloud.ppp[0].queue queueBitLength:vector ETV
attr autoWarmupFilter false
attr interpolationmode sample-hold
attr recordingmode vector
attr source "warmup(atomic(constant0(packetPushEnded) + sum(packetLength(packetPushStarted)) - sum(packetLength(packetPulled)) - sum(packetLength(packetRemoved)) - sum(packetLength(packetDropped))))"
attr title "queue bit length"
attr unit b
vector 101 LoRaNetworkTest.nsRouter.ppp[0].ppp rxPkOk:vector(packetBytes) ETV
attr interpolationmode none
attr recordingmode vector(packetBytes)
attr source rxPkOk
attr title "packets received OK, packetBytes"
vector 102 LoRaNetworkTest.nsRouter.ppp[0].ppp passedUpPk:vector(packetBytes) ETV
attr interpolationmode none
attr recordingmode vector(packetBytes)
attr source packetSentToUpper
attr title "packets passed to higher layer, packetBytes"
vector 103 LoRaNetworkTest.nsRouter.ipv4.arp arpRequestSent:vector(packetBytes) ETV
attr recordingmode vector(packetBytes)
attr source arpRequestSent
attr title "ARP request sent, packetBytes"
vector 104 LoRaNetworkTest.nsRouter.ethernet encapPk:vector(packetBytes) ETV
attr interpolationmode none
attr recordingmode vector(packetBytes)
attr source encapPk
attr title "packets encapsulated, packetBytes"
vector 105 LoRaNetworkTest.nsRouter.eth[0].queue incomingPacketLengths:vector ETV
attr interpolationmode none
attr recordingmode vector
attr source packetLength(packetPushStarted)
attr title "incoming packet lengths"
attr unit b
vector 106 LoRaNetworkTest.nsRouter.eth[0].queue incomingDataRate:vector ETV
attr interpolationmode linear
attr recordingmode vector
attr source throughput(packetPushStarted)
attr title "incoming datarate"
attr unit bps
vector 107 LoRaNetworkTest.nsRouter.eth[0].queue queueingTime:vector ETV
attr interpolationmode none
attr recordingmode vector
attr source queueingTime(packetPulled)
attr title "queueing times"
attr unit s
vector 108 LoRaNetworkTest.nsRouter.eth[0].queue outgoingPacketLengths:vector ETV
attr interpolationmode none
attr recordingmode vector
attr source packetLength(packetPulled)
attr title "outgoing packet lengths"
attr unit b
vector 109 LoRaNetworkTest.nsRouter.eth[0].queue outgoingDataRate:vector ETV
attr interpolationmode linear
attr recordingmode vector
attr source throughput(packetPulled)
attr title "outgoing datarate"
attr unit bps
vector 110 LoRaNetworkTest.nsRouter.eth[0].mac packetReceivedFromUpper:vector(packetBytes) ETV
attr interpolationmode none
attr recordingmode vector(packetBytes)
attr source packetReceivedFromUpper
attr title "packet bytes from higher layer, packetBytes"
vector 111 LoRaNetworkTest.nsRouter.eth[0].queue queueLength:vector ETV
attr autoWarmupFilter false
attr interpolationmode sample-hold
attr recordingmode vector
attr source "warmup(atomic(constant0(packetPushEnded) + count(packetPushStarted) - count(packetPulled) - count(packetRemoved) - count(packetDropped)))"
attr title "queue length"
attr unit pk
vector 112 LoRaNetworkTest.nsRouter.eth[0].queue queueBitLength:vector ETV
attr autoWarmupFilter false
attr interpolationmode sample-hold
attr recordingmode vector
attr source "warmup(atomic(constant0(packetPushEnded) + sum(packetLength(packetPushStarted)) - sum(packetLength(packetPulled)) - sum(packetLength(packetRemoved)) - sum(packetLength(packetDropped))))"
attr title "queue bit length"
attr unit b
vector 113 LoRaNetworkTest.nsRouter.eth[0].mac txPk:vector(packetBytes) ETV
attr interpolationmode none
attr recordingmode vector(packetBytes)
attr source packetSentToLower
attr title "packets transmitted, packetBytes"
vector 114 LoRaNetworkTest.networkServer.eth[0].mac rxPkOk:vector(packetBytes) ETV
attr interpolationmode none
attr recordingmode vector(packetBytes)
attr source rxPkOk
attr title "packets received OK, packetBytes"
vector 115 LoRaNetworkTest.networkServer.eth[0].mac passedUpPk:vector(packetBytes) ETV
attr interpolationmode none
attr recordingmode vector(packetBytes)
attr source packetSentToUpper
attr title "packets passed to higher layer, packetBytes"
vector 116 LoRaNetworkTest.networkServer.ethernet decapPk:vector(packetBytes) ETV
attr interpolationmode none
attr recordingmode vector(packetBytes)
attr source decapPk
attr title "packets decapsulated, packetBytes"
vector 117 LoRaNetworkTest.networkServer.ipv4.arp arpReplySent:vector(packetBytes) ETV
attr recordingmode vector(packetBytes)
attr source arpReplySent
attr title "ARP replies sent, packetBytes"
vector 118 LoRaNetworkTest.networkServer.ethernet encapPk:vector(packetBytes) ETV
attr interpolationmode none
attr recordingmode vector(packetBytes)
attr source encapPk
attr title "packets encapsulated, packetBytes"
vector 119 LoRaNetworkTest.networkServer.eth[0].queue incomingPacketLengths:vector ETV
attr interpolationmode none
attr recordingmode vector
attr source packetLength(packetPushStarted)
attr title "incoming packet lengths"
attr unit b
vector 120 LoRaNetworkTest.networkServer.eth[0].queue incomingDataRate:vector ETV
attr interpolationmode linear
attr recordingmode vector
attr source throughput(packetPushStarted)
attr title "incoming datarate"
attr unit bps
vector 121 LoRaNetworkTest.networkServer.eth[0].queue queueingTime:vector ETV
attr interpolationmode none
attr recordingmode vector
attr source queueingTime(packetPulled)
attr title "queueing times"
attr unit s
vector 122 LoRaNetworkTest.networkServer.eth[0].queue outgoingPacketLengths:vector ETV
attr interpolationmode none
attr recordingmode vector
attr source packetLength(packetPulled)
attr title "outgoing packet lengths"
attr unit b
vector 123 LoRaNetworkTest.networkServer.eth[0].queue outgoingDataRate:vector ETV
attr interpolationmode linear
attr recordingmode vector
attr source throughput(packetPulled)
attr title "outgoing datarate"
attr unit bps
vector 124 LoRaNetworkTest.networkServer.eth[0].mac packetReceivedFromUpper:vector(packetBytes) ETV
attr interpolationmode none
attr recordingmode vector(packetBytes)
attr source packetReceivedFromUpper
attr title "packet bytes from higher layer, packetBytes"
vector 125 LoRaNetworkTest.networkServer.eth[0].queue queueLength:vector ETV
attr autoWarmupFilter false
attr interpolationmode sample-hold
attr recordingmode vector
attr source "warmup(atomic(constant0(packetPushEnded) + count(packetPushStarted) - count(packetPulled) - count(packetRemoved) - count(packetDropped)))"
attr title "queue length"
attr unit pk
vector 126 LoRaNetworkTest.networkServer.eth[0].queue queueBitLength:vector ETV
attr autoWarmupFilter false
attr interpolationmode sample-hold
attr recordingmode vector
attr source "warmup(atomic(constant0(packetPushEnded) + sum(packetLength(packetPushStarted)) - sum(packetLength(packetPulled)) - sum(packetLength(packetRemoved)) - sum(packetLength(packetDropped))))"
attr title "queue bit length"
attr unit b
vector 127 LoRaNetworkTest.networkServer.eth[0].mac txPk:vector(packetBytes) ETV
attr interpolationmode none
attr recordingmode vector(packetBytes)
attr source packetSentToLower
attr title "packets transmitted, packetBytes"
vector 128 LoRaNetworkTest.nsRouter.eth[0].mac rxPkOk:vector(packetBytes) ETV
attr interpolationmode none
attr recordingmode vector(packetBytes)
attr source rxPkOk
attr title "packets received OK, packetBytes"
vector 129 LoRaNetworkTest.nsRouter.eth[0].mac passedUpPk:vector(packetBytes) ETV
attr interpolationmode none
attr recordingmode vector(packetBytes)
attr source packetSentToUpper
attr title "packets passed to higher layer, packetBytes"
vector 130 LoRaNetworkTest.nsRouter.ethernet decapPk:vector(packetBytes) ETV
attr interpolationmode none
attr recordingmode vector(packetBytes)
attr source decapPk
attr title "packets decapsulated, packetBytes"
vector 131 LoRaNetworkTest.networkServer.udp packetReceived:vector(packetBytes) ETV
attr interpolationmode none
attr recordingmode vector(packetBytes)
attr source packetReceived
attr title "packets received, packetBytes"
vector 132 LoRaNetworkTest.networkServer.app[0] "Vector of SNIR per node" ETV
vector 133 LoRaNetworkTest.networkServer.app[0] "Vector of RSSI per node" ETV
vector 134 LoRaNetworkTest.loRaNodes[1].LoRaNic.radio receptionState:vector ETV
attr interpolationmode sample-hold
attr recordingmode vector
attr source receptionStateChanged
attr title "Radio reception state"
vector 135 LoRaNetworkTest.networkServer.app[0] "Received Sequence number" ETV
vector 136 LoRaNetworkTest.loRaNodes[3].app[0] "SF Vector" ETV
vector 137 LoRaNetworkTest.loRaNodes[3].app[0] "TP Vector" ETV
vector 138 LoRaNetworkTest.loRaNodes[3].LoRaNic.queue incomingPacketLengths:vector ETV
attr interpolationmode none
attr recordingmode vector
attr source packetLength(packetPushStarted)
attr title "incoming packet lengths"
attr unit b
vector 139 LoRaNetworkTest.loRaNodes[3].LoRaNic.queue incomingDataRate:vector ETV
attr interpolationmode linear
attr recordingmode vector
attr source throughput(packetPushStarted)
attr title "incoming datarate"
attr unit bps
vector 140 LoRaNetworkTest.loRaNodes[3].LoRaNic.queue queueingTime:vector ETV
attr interpolationmode none
attr recordingmode vector
attr source queueingTime(packetPulled)
attr title "queueing times"
attr unit s
vector 141 LoRaNetworkTest.loRaNodes[3].LoRaNic.queue outgoingPacketLengths:vector ETV
attr interpolationmode none
attr recordingmode vector
attr source packetLength(packetPulled)
attr title "outgoing packet lengths"
attr unit b
vector 142 LoRaNetworkTest.loRaNodes[3].LoRaNic.queue outgoingDataRate:vector ETV
attr interpolationmode linear
attr recordingmode vector
attr source throughput(packetPulled)
attr title "outgoing datarate"
attr unit bps
vector 143 LoRaNetworkTest.loRaNodes[3].LoRaNic.radio.IdealEpEnergyStorage residualEnergyCapacity:vector ETV
attr interpolationmode linear
attr recordingmode vector
attr source residualEnergyCapacityChanged
attr title "Residual energy capacity"
vector 144 LoRaNetworkTest.loRaNodes[3].LoRaNic.radio transmissionState:vector ETV
attr interpolationmode sample-hold
attr recordingmode vector
attr source transmissionStateChanged
attr title "Radio transmission state"
vector 145 LoRaNetworkTest.loRaNodes[3].LoRaNic.queue queueLength:vector ETV
attr autoWarmupFilter false
attr interpolationmode sample-hold
attr recordingmode vector
attr source "warmup(atomic(constant0(packetPushEnded) + count(packetPushStarted) - count(packetPulled) - count(packetRemoved) - count(packetDropped)))"
attr title "queue length"
attr unit pk
vector 146 LoRaNetworkTest.loRaNodes[3].LoRaNic.queue queueBitLength:vector ETV
attr autoWarmupFilter false
attr interpolationmode sample-hold
attr recordingmode vector
attr source "warmup(atomic(constant0(packetPushEnded) + sum(packetLength(packetPushStarted)) - sum(packetLength(packetPulled)) - sum(packetLength(packetRemoved)) - sum(packetLength(packetDropped))))"
attr title "queue bit length"
attr unit b
vector 147 LoRaNetworkTest.networkServer.app[0] "Vector of SNIR per node" ETV
vector 148 LoRaNetworkTest.networkServer.app[0] "Vector of RSSI per node" ETV
vector 149 LoRaNetworkTest.loRaNodes[3].LoRaNic.radio receptionState:vector ETV
attr interpolationmode sample-hold
attr recordingmode vector
attr source receptionStateChanged
attr title "Radio reception state"
vector 150 LoRaNetworkTest.networkServer.app[0] "Received Sequence number" ETV
vector 151 LoRaNetworkTest.loRaNodes[2].app[0] "SF Vector" ETV
vector 152 LoRaNetworkTest.loRaNodes[2].app[0] "TP Vector" ETV
vector 153 LoRaNetworkTest.loRaNodes[2].LoRaNic.queue incomingPacketLengths:vector ETV
attr interpolationmode none
attr recordingmode vector
attr source packetLength(packetPushStarted)
attr title "incoming packet lengths"
attr unit b
vector 154 LoRaNetworkTest.loRaNodes[2].LoRaNic.queue incomingDataRate:vector ETV
attr interpolationmode linear
attr recordingmode vector
attr source throughput(packetPushStarted)
attr title "incoming datarate"
attr unit bps
vector 155 LoRaNetworkTest.loRaNodes[2].LoRaNic.queue queueingTime:vector ETV
attr interpolationmode none
attr recordingmode vector
attr source queueingTime(packetPulled)
attr title "queueing times"
attr unit s
vector 156 LoRaNetworkTest.loRaNodes[2].LoRaNic.queue outgoingPacketLengths:vector ETV
attr interpolationmode none
attr recordingmode vector
attr source packetLength(packetPulled)
attr title "outgoing packet lengths"
attr unit b
vector 157 LoRaNetworkTest.loRaNodes[2].LoRaNic.queue outgoingDataRate:vector ETV
attr interpolationmode linear
attr recordingmode vector
attr source throughput(packetPulled)
attr title "outgoing datarate"
attr unit bps
vector 158 LoRaNetworkTest.loRaNodes[2].LoRaNic.radio.IdealEpEnergyStorage residualEnergyCapacity:vector ETV
attr interpolationmode linear
attr recordingmode vector
attr source residualEnergyCapacityChanged
attr title "Residual energy capacity"
vector 159 LoRaNetworkTest.loRaNodes[2].LoRaNic.radio transmissionState:vector ETV
attr interpolationmode sample-hold
attr recordingmode vector
attr source transmissionStateChanged
attr title "Radio transmission state"
vector 160 LoRaNetworkTest.loRaNodes[2].LoRaNic.queue queueLength:vector ETV
attr autoWarmupFilter false
attr interpolationmode sample-hold
attr recordingmode vector
attr source "warmup(atomic(constant0(packetPushEnded) + count(packetPushStarted) - count(packetPulled) - count(packetRemoved) - count(packetDropped)))"
attr title "queue length"
attr unit pk
vector 161 LoRaNetworkTest.loRaNodes[2].LoRaNic.queue queueBitLength:vector ETV
attr autoWarmupFilter false
attr interpolationmode sample-hold
attr recordingmode vector
attr source "warmup(atomic(constant0(packetPushEnded) + sum(packetLength(packetPushStarted)) - sum(packetLength(packetPulled)) - sum(packetLength(packetRemoved)) - sum(packetLength(packetDropped))))"
attr title "queue bit length"
attr unit b
vector 162 LoRaNetworkTest.networkServer.app[0] "Vector of SNIR per node" ETV
vector 163 LoRaNetworkTest.networkServer.app[0] "Vector of RSSI per node" ETV
vector 164 LoRaNetworkTest.loRaNodes[2].LoRaNic.radio receptionState:vector ETV
attr interpolationmode sample-hold
attr recordingmode vector
attr source receptionStateChanged
attr title "Radio reception state"
vector 165 LoRaNetworkTest.networkServer.app[0] "Received Sequence number" ETV
vector 166 LoRaNetworkTest.loRaNodes[0].app[0] "SF Vector" ETV
vector 167 LoRaNetworkTest.loRaNodes[0].app[0] "TP Vector" ETV
vector 168 LoRaNetworkTest.loRaNodes[0].LoRaNic.queue incomingPacketLengths:vector ETV
attr interpolationmode none
attr recordingmode vector
attr source packetLength(packetPushStarted)
attr title "incoming packet lengths"
attr unit b
vector 169 LoRaNetworkTest.loRaNodes[0].LoRaNic.queue incomingDataRate:vector ETV
attr interpolationmode linear
attr recordingmode vector
attr source throughput(packetPushStarted)
attr title "incoming datarate"
attr unit bps
vector 170 LoRaNetworkTest.loRaNodes[0].LoRaNic.queue queueingTime:vector ETV
attr interpolationmode none
attr recordingmode vector
attr source queueingTime(packetPulled)
attr title "queueing times"
attr unit s
vector 171 LoRaNetworkTest.loRaNodes[0].LoRaNic.queue outgoingPacketLengths:vector ETV
attr interpolationmode none
attr recordingmode vector
attr source packetLength(packetPulled)
attr title "outgoing packet lengths"
attr unit b
vector 172 LoRaNetworkTest.loRaNodes[0].LoRaNic.queue outgoingDataRate:vector ETV
attr interpolationmode linear
attr recordingmode vector
attr source throughput(packetPulled)
attr title "outgoing datarate"
attr unit bps
vector 173 LoRaNetworkTest.loRaNodes[0].LoRaNic.radio.IdealEpEnergyStorage residualEnergyCapacity:vector ETV
attr interpolationmode linear
attr recordingmode vector
attr source residualEnergyCapacityChanged
attr title "Residual energy capacity"
vector 174 LoRaNetworkTest.loRaNodes[0].LoRaNic.radio transmissionState:vector ETV
attr interpolationmode sample-hold
attr recordingmode vector
attr source transmissionStateChanged
attr title "Radio transmission state"
vector 175 LoRaNetworkTest.loRaNodes[0].LoRaNic.queue queueLength:vector ETV
attr autoWarmupFilter false
attr interpolationmode sample-hold
attr recordingmode vector
attr source "warmup(atomic(constant0(packetPushEnded) + count(packetPushStarted) - count(packetPulled) - count(packetRemoved) - count(packetDropped)))"
attr title "queue length"
attr unit pk
vector 176 LoRaNetworkTest.loRaNodes[0].LoRaNic.queue queueBitLength:vector ETV
attr autoWarmupFilter false
attr interpolationmode sample-hold
attr recordingmode vector
attr source "warmup(atomic(constant0(packetPushEnded) + sum(packetLength(packetPushStarted)) - sum(packetLength(packetPulled)) - sum(packetLength(packetRemoved)) - sum(packetLength(packetDropped))))"
attr title "queue bit length"
attr unit b
vector 177 LoRaNetworkTest.loRaNodes[5].app[0] "SF Vector" ETV
vector 178 LoRaNetworkTest.loRaNodes[5].app[0] "TP Vector" ETV
vector 179 LoRaNetworkTest.loRaNodes[5].LoRaNic.queue incomingPacketLengths:vector ETV
attr interpolationmode none
attr recordingmode vector
attr source packetLength(packetPushStarted)
attr title "incoming packet lengths"
attr unit b
vector 180 LoRaNetworkTest.loRaNodes[5].LoRaNic.queue incomingDataRate:vector ETV
attr interpolationmode linear
attr recordingmode vector
attr source throughput(packetPushStarted)
attr title "incoming datarate"
attr unit bps
vector 181 LoRaNetworkTest.loRaNodes[5].LoRaNic.queue queueingTime:vector ETV
attr interpolationmode none
attr recordingmode vector
attr source queueingTime(packetPulled)
attr title "queueing times"
attr unit s
vector 182 LoRaNetworkTest.loRaNodes[5].LoRaNic.queue outgoingPacketLengths:vector ETV
attr interpolationmode none
attr recordingmode vector
attr source packetLength(packetPulled)
attr title "outgoing packet lengths"
attr unit b
vector 183 LoRaNetworkTest.loRaNodes[5].LoRaNic.queue outgoingDataRate:vector ETV
attr interpolationmode linear
attr recordingmode vector
attr source throughput(packetPulled)
attr title "outgoing datarate"
attr unit bps
vector 184 LoRaNetworkTest.loRaNodes[5].LoRaNic.radio.IdealEpEnergyStorage residualEnergyCapacity:vector ETV
attr interpolationmode linear
attr recordingmode vector
attr source residualEnergyCapacityChanged
attr title "Residual energy capacity"
vector 185 LoRaNetworkTest.loRaNodes[5].LoRaNic.radio transmissionState:vector ETV
attr interpolationmode sample-hold
attr recordingmode vector
attr source transmissionStateChanged
attr title "Radio transmission state"
vector 186 LoRaNetworkTest.loRaNodes[5].LoRaNic.queue queueLength:vector ETV
attr autoWarmupFilter false
attr interpolationmode sample-hold
attr recordingmode vector
attr source "warmup(atomic(constant0(packetPushEnded) + count(packetPushStarted) - count(packetPulled) - count(packetRemoved) - count(packetDropped)))"
attr title "queue length"
attr unit pk
vector 187 LoRaNetworkTest.loRaNodes[5].LoRaNic.queue queueBitLength:vector ETV
attr autoWarmupFilter false
attr interpolationmode sample-hold
attr recordingmode vector
attr source "warmup(atomic(constant0(packetPushEnded) + sum(packetLength(packetPushStarted)) - sum(packetLength(packetPulled)) - sum(packetLength(packetRemoved)) - sum(packetLength(packetDropped))))"
attr title "queue bit length"
attr unit b
vector 188 LoRaNetworkTest.networkServer.app[0] "Vector of SNIR per node" ETV
vector 189 LoRaNetworkTest.networkServer.app[0] "Vector of RSSI per node" ETV
vector 190 LoRaNetworkTest.loRaNodes[0].LoRaNic.radio receptionState:vector ETV
attr interpolationmode sample-hold
attr recordingmode vector
attr source receptionStateChanged
attr title "Radio reception state"
vector 191 LoRaNetworkTest.loRaNodes[5].LoRaNic.radio receptionState:vector ETV
attr interpolationmode sample-hold
attr recordingmode vector
attr source receptionStateChanged
attr title "Radio reception state"
vector 192 LoRaNetworkTest.networkServer.app[0] "Received Sequence number" ETV
vector 193 LoRaNetworkTest.loRaNodes[9].app[0] "SF Vector" ETV
vector 194 LoRaNetworkTest.loRaNodes[9].app[0] "TP Vector" ETV
vector 195 LoRaNetworkTest.loRaNodes[9].LoRaNic.queue incomingPacketLengths:vector ETV
attr interpolationmode none
attr recordingmode vector
attr source packetLength(packetPushStarted)
attr title "incoming packet lengths"
attr unit b
vector 196 LoRaNetworkTest.loRaNodes[9].LoRaNic.queue incomingDataRate:vector ETV
attr interpolationmode linear
attr recordingmode vector
attr source throughput(packetPushStarted)
attr title "incoming datarate"
attr unit bps
vector 197 LoRaNetworkTest.loRaNodes[9].LoRaNic.queue queueingTime:vector ETV
attr interpolationmode none
attr recordingmode vector
attr source queueingTime(packetPulled)
attr title "queueing times"
attr unit s
vector 198 LoRaNetworkTest.loRaNodes[9].LoRaNic.queue outgoingPacketLengths:vector ETV
attr interpolationmode none
attr recordingmode vector
attr source packetLength(packetPulled)
attr title "outgoing packet lengths"
attr unit b
vector 199 LoRaNetworkTest.loRaNodes[9].LoRaNic.queue outgoingDataRate:vector ETV
attr interpolationmode linear
attr recordingmode vector
attr source throughput(packetPulled)
attr title "outgoing datarate"
attr unit bps
vector 200 LoRaNetworkTest.loRaNodes[9].LoRaNic.radio.IdealEpEnergyStorage residualEnergyCapacity:vector ETV
attr interpolationmode linear
attr recordingmode vector
attr source residualEnergyCapacityChanged
attr title "Residual energy capacity"
vector 201 LoRaNetworkTest.loRaNodes[9].LoRaNic.radio transmissionState:vector ETV
attr interpolationmode sample-hold
attr recordingmode vector
attr source transmissionStateChanged
attr title "Radio transmission state"
vector 202 LoRaNetworkTest.loRaNodes[9].LoRaNic.queue queueLength:vector ETV
attr autoWarmupFilter false
attr interpolationmode sample-hold
attr recordingmode vector
attr source "warmup(atomic(constant0(packetPushEnded) + count(packetPushStarted) - count(packetPulled) - count(packetRemoved) - count(packetDropped)))"
attr title "queue length"
attr unit pk
vector 203 LoRaNetworkTest.loRaNodes[9].LoRaNic.queue queueBitLength:vector ETV
attr autoWarmupFilter false
attr interpolationmode sample-hold
attr recordingmode vector
attr source "warmup(atomic(constant0(packetPushEnded) + sum(packetLength(packetPushStarted)) - sum(packetLength(packetPulled)) - sum(packetLength(packetRemoved)) - sum(packetLength(packetDropped))))"
attr title "queue bit length"
attr unit b
vector 204 LoRaNetworkTest.networkServer.app[0] "Vector of SNIR per node" ETV
vector 205 LoRaNetworkTest.networkServer.app[0] "Vector of RSSI per node" ETV
vector 206 LoRaNetworkTest.loRaNodes[9].LoRaNic.radio receptionState:vector ETV
attr interpolationmode sample-hold
attr recordingmode vector
attr source receptionStateChanged
attr title "Radio reception state"
vector 207 LoRaNetworkTest.networkServer.app[0] "Received Sequence number" ETV
vector 208 LoRaNetworkTest.networkServer.app[0] "Vector of SNIR per node" ETV
vector 209 LoRaNetworkTest.networkServer.app[0] "Vector of RSSI per node" ETV
vector 210 LoRaNetworkTest.networkServer.app[0] "Received Sequence number" ETV
vector 211 LoRaNetworkTest.loRaNodes[7].app[0] "SF Vector" ETV
vector 212 LoRaNetworkTest.loRaNodes[7].app[0] "TP Vector" ETV
vector 213 LoRaNetworkTest.loRaNodes[7].LoRaNic.queue incomingPacketLengths:vector ETV
attr interpolationmode none
attr recordingmode vector
attr source packetLength(packetPushStarted)
attr title "incoming packet lengths"
attr unit b
vector 214 LoRaNetworkTest.loRaNodes[7].LoRaNic.queue incomingDataRate:vector ETV
attr interpolationmode linear
attr recordingmode vector
attr source throughput(packetPushStarted)
attr title "incoming datarate"
attr unit bps
vector 215 LoRaNetworkTest.loRaNodes[7].LoRaNic.queue queueingTime:vector ETV
attr interpolationmode none
attr recordingmode vector
attr source queueingTime(packetPulled)
attr title "queueing times"
attr unit s
vector 216 LoRaNetworkTest.loRaNodes[7].LoRaNic.queue outgoingPacketLengths:vector ETV
attr interpolationmode none
attr recordingmode vector
attr source packetLength(packetPulled)
attr title "outgoing packet lengths"
attr unit b
vector 217 LoRaNetworkTest.loRaNodes[7].LoRaNic.queue outgoingDataRate:vector ETV
attr interpolationmode linear
attr recordingmode vector
attr source throughput(packetPulled)
attr title "outgoing datarate"
attr unit bps
vector 218 LoRaNetworkTest.loRaNodes[7].LoRaNic.radio.IdealEpEnergyStorage residualEnergyCapacity:vector ETV
attr interpolationmode linear
attr recordingmode vector
attr source residualEnergyCapacityChanged
attr title "Residual energy capacity"
vector 219 LoRaNetworkTest.loRaNodes[7].LoRaNic.radio transmissionState:vector ETV
attr interpolationmode sample-hold
attr recordingmode vector
attr source transmissionStateChanged
attr title "Radio transmission state"
vector 220 LoRaNetworkTest.loRaNodes[7].LoRaNic.queue queueLength:vector ETV
attr autoWarmupFilter false
attr interpolationmode sample-hold
attr recordingmode vector
attr source "warmup(atomic(constant0(packetPushEnded) + count(packetPushStarted) - count(packetPulled) - count(packetRemoved) - count(packetDropped)))"
attr title "queue length"
attr unit pk
vector 221 LoRaNetworkTest.loRaNodes[7].LoRaNic.queue queueBitLength:vector ETV
attr autoWarmupFilter false
attr interpolationmode sample-hold
attr recordingmode vector
attr source "warmup(atomic(constant0(packetPushEnded) + sum(packetLength(packetPushStarted)) - sum(packetLength(packetPulled)) - sum(packetLength(packetRemoved)) - sum(packetLength(packetDropped))))"
attr title "queue bit length"
attr unit b
vector 222 LoRaNetworkTest.networkServer.app[0] "Vector of SNIR per node" ETV
vector 223 LoRaNetworkTest.networkServer.app[0] "Vector of RSSI per node" ETV
vector 224 LoRaNetworkTest.loRaNodes[7].LoRaNic.radio receptionState:vector ETV
attr interpolationmode sample-hold
attr recordingmode vector
attr source receptionStateChanged
attr title "Radio reception state"
vector 225 LoRaNetworkTest.networkServer.app[0] "Received Sequence number" ETV
vector 226 LoRaNetworkTest.loRaNodes[4].app[0] "SF Vector" ETV
vector 227 LoRaNetworkTest.loRaNodes[4].app[0] "TP Vector" ETV
vector 228 LoRaNetworkTest.loRaNodes[4].LoRaNic.queue incomingPacketLengths:vector ETV
attr interpolationmode none
attr recordingmode vector
attr source packetLength(packetPushStarted)
attr title "incoming packet lengths"
attr unit b
vector 229 LoRaNetworkTest.loRaNodes[4].LoRaNic.queue incomingDataRate:vector ETV
attr interpolationmode linear
attr recordingmode vector
attr source throughput(packetPushStarted)
attr title "incoming datarate"
attr unit bps
vector 230 LoRaNetworkTest.loRaNodes[4].LoRaNic.queue queueingTime:vector ETV
attr interpolationmode none
attr recordingmode vector
attr source queueingTime(packetPulled)
attr title "queueing times"
attr unit s
vector 231 LoRaNetworkTest.loRaNodes[4].LoRaNic.queue outgoingPacketLengths:vector ETV
attr interpolationmode none
attr recordingmode vector
attr source packetLength(packetPulled)
attr title "outgoing packet lengths"
attr unit b
vector 232 LoRaNetworkTest.loRaNodes[4].LoRaNic.queue outgoingDataRate:vector ETV
attr interpolationmode linear
attr recordingmode vector
attr source throughput(packetPulled)
attr title "outgoing datarate"
attr unit bps
vector 233 LoRaNetworkTest.loRaNodes[4].LoRaNic.radio.IdealEpEnergyStorage residualEnergyCapacity:vector ETV
attr interpolationmode linear
attr recordingmode vector
attr source residualEnergyCapacityChanged
attr title "Residual energy capacity"
vector 234 LoRaNetworkTest.loRaNodes[4].LoRaNic.radio transmissionState:vector ETV
attr interpolationmode sample-hold
attr recordingmode vector
attr source transmissionStateChanged
attr title "Radio transmission state"
vector 235 LoRaNetworkTest.loRaNodes[4].LoRaNic.queue queueLength:vector ETV
attr autoWarmupFilter false
attr interpolationmode sample-hold
attr recordingmode vector
attr source "warmup(atomic(constant0(packetPushEnded) + count(packetPushStarted) - count(packetPulled) - count(packetRemoved) - count(packetDropped)))"
attr title "queue length"
attr unit pk
vector 236 LoRaNetworkTest.loRaNodes[4].LoRaNic.queue queueBitLength:vector ETV
attr autoWarmupFilter false
attr interpolationmode sample-hold
attr recordingmode vector
attr source "warmup(atomic(constant0(packetPushEnded) + sum(packetLength(packetPushStarted)) - sum(packetLength(packetPulled)) - sum(packetLength(packetRemoved)) - sum(packetLength(packetDropped))))"
attr title "queue bit length"
attr unit b
vector 237 LoRaNetworkTest.networkServer.app[0] "Vector of SNIR per node" ETV
vector 238 LoRaNetworkTest.networkServer.app[0] "Vector of RSSI per node" ETV
vector 239 LoRaNetworkTest.loRaNodes[4].LoRaNic.radio receptionState:vector ETV
attr interpolationmode sample-hold
attr recordingmode vector
attr source receptionStateChanged
attr title "Radio reception state"
vector 240 LoRaNetworkTest.networkServer.app[0] "Received Sequence number" ETV
vector 241 LoRaNetworkTest.loRaNodes[8].app[0] "SF Vector" ETV
vector 242 LoRaNetworkTest.loRaNodes[8].app[0] "TP Vector" ETV
vector 243 LoRaNetworkTest.loRaNodes[8].LoRaNic.queue incomingPacketLengths:vector ETV
attr interpolationmode none
attr recordingmode vector
attr source packetLength(packetPushStarted)
attr title "incoming packet lengths"
attr unit b
vector 244 LoRaNetworkTest.loRaNodes[8].LoRaNic.queue incomingDataRate:vector ETV
attr interpolationmode linear
attr recordingmode vector
attr source throughput(packetPushStarted)
attr title "incoming datarate"
attr unit bps
vector 245 LoRaNetworkTest.loRaNodes[8].LoRaNic.queue queueingTime:vector ETV
attr interpolationmode none
attr recordingmode vector
attr source queueingTime(packetPulled)
attr title "queueing times"
attr unit s
vector 246 LoRaNetworkTest.loRaNodes[8].LoRaNic.queue outgoingPacketLengths:vector ETV
attr interpolationmode none
attr recordingmode vector
attr source packetLength(packetPulled)
attr title "outgoing packet lengths"
attr unit b
vector 247 LoRaNetworkTest.loRaNodes[8].LoRaNic.queue outgoingDataRate:vector ETV
attr interpolationmode linear
attr recordingmode vector
attr source throughput(packetPulled)
attr title "outgoing datarate"
attr unit bps
vector 248 LoRaNetworkTest.loRaNodes[8].LoRaNic.radio.IdealEpEnergyStorage residualEnergyCapacity:vector ETV
attr interpolationmode linear
attr recordingmode vector
attr source residualEnergyCapacityChanged
attr title "Residual energy capacity"
vector 249 LoRaNetworkTest.loRaNodes[8].LoRaNic.radio transmissionState:vector ETV
attr interpolationmode sample-hold
attr recordingmode vector
attr source transmissionStateChanged
attr title "Radio transmission state"
vector 250 LoRaNetworkTest.loRaNodes[8].LoRaNic.queue queueLength:vector ETV
attr autoWarmupFilter false
attr interpolationmode sample-hold
attr recordingmode vector
attr source "warmup(atomic(constant0(packetPushEnded) + count(packetPushStarted) - count(packetPulled) - count(packetRemoved) - count(packetDropped)))"
attr title "queue length"
attr unit pk
vector 251 LoRaNetworkTest.loRaNodes[8].LoRaNic.queue queueBitLength:vector ETV
attr autoWarmupFilter false
attr interpolationmode sample-hold
attr recordingmode vector
attr source "warmup(atomic(constant0(packetPushEnded) + sum(packetLength(packetPushStarted)) - sum(packetLength(packetPulled)) - sum(packetLength(packetRemoved)) - sum(packetLength(packetDropped))))"
attr title "queue bit length"
attr unit b
vector 252 LoRaNetworkTest.networkServer.app[0] "Vector of SNIR per node" ETV
vector 253 LoRaNetworkTest.networkServer.app[0] "Vector of RSSI per node" ETV
vector 254 LoRaNetworkTest.loRaNodes[8].LoRaNic.radio receptionState:vector ETV
attr interpolationmode sample-hold
attr recordingmode vector
attr source receptionStateChanged
attr title "Radio reception state"
vector 255 LoRaNetworkTest.networkServer.app[0] "Received Sequence number" ETV
0	59437 8 0 0 0 0 1 0 0 0 0
1	59445 8 0 0 0 0 1 0 0 0 0
2	59453 8 0 0 0 0 1 0 0 0 0
3	59461 488 0 1424 0 2047.38592348216 20 0 19 190 2470
4	59949 8 0 0 0 0 1 0 0 0 0
5	59957 8 0 0 0 0 1 0 0 0 0
6	59965 948 0 1401 0 2047.38592148216 39 0 1 19 19
7	60913 8 0 0 0 0 1 0 0 0 0
8	60921 948 0 1396 0 2047.37592049616 39 0 1 19 19
9	61869 8 0 0 0 0 1 0 0 0 0
10	61877 924 0 555 0 760.47164220626 36 0 0.0825 0.91608 0.0626471208
11	62801 904 0 468 0 586.18061062177 36 0 0.0825 0.91608 0.0626471208
12	63705 1876 0 1198 0 1602.98111405131 68 0 0.0825 1.83216 0.1252942416
13	65581 952 0 1431 0 2051.37591798584 36 0 0.0792 0.88968 0.0583782408
14	66533 972 0 1257 0 1653.19173815794 36 0 0.0825 0.91608 0.0626471208
15	67505 1412 0 1052 0 1352.41885213039 52 0 0.0792 1.33452 0.0875673612
16	68917 36 0 0 0 0 4 0 0 0 0
17	68953 700 0 1446 0 2255.694623276 28 0 0.0825 0.78804 0.0585485604
18	69653 512 0 1344 0 1876.90174687089 20 0 0.0825 0.45804 0.0313235604
19	70165 1416 0 1111 0 1391.97421431424 52 0 0.0825 1.37412 0.0939706812
20	71581 327 0 555 0 760.47164220626 15 0 3 21 41
21	71908 915 0 555 0 760.47164220626 35 0 0.0825 0.91608 0.0626471208
22	72823 320 0 468 0 586.18061062177 15 0 3 21 41
23	73143 895 0 468 0 586.18061062177 35 0 0.0825 0.91608 0.0626471208
24	74038 651 0 1198 0 1602.98111405131 27 0 3 41 81
25	74689 1867 0 1198 0 1602.98111405131 67 0 0.0825 1.83216 0.1252942416
26	76556 338 0 1431 0 2051.37591798584 15 0 3 21 41
27	76894 943 0 1431 0 2051.37591798584 35 0 0.0792 0.88968 0.0583782408
28	77837 345 0 1257 0 1653.19173815794 15 0 3 21 41
29	78182 963 0 1257 0 1653.19173815794 35 0 0.0825 0.91608 0.0626471208
30	79145 494 0 1052 0 1352.41885213039 21 0 3 31 61
31	79639 1403 0 1052 0 1352.41885213039 51 0 0.0792 1.33452 0.0875673612
32	81042 27 0 0 0 0 3 0 1 1 1
33	81069 27 0 0 0 0 3 0 0 0 0
34	81096 227 0 1446 0 2255.694623276 11 0 3 15 31
35	81323 691 0 1446 0 2255.694623276 27 0 0.0825 0.78804 0.0585485604
36	82014 189 0 1344 0 1876.90174687089 9 0 3 11 21
37	82203 503 0 1344 0 1876.90174687089 19 0 0.0825 0.45804 0.0313235604
38	82706 495 0 1111 0 1391.97421431424 21 0 3 31 61
39	83201 1407 0 1111 0 1391.97421431424 51 0 0.0825 1.37412 0.0939706812
40	84608 27 0 0 0 0 3 0 4 4 16
41	84635 9 0 0 0 0 1 1 1 1 1
42	84644 9 0 0 0 0 1 1 1 1 1
43	84653 48 3 383 206.11463396387 581.93382662177 2 9 9 18 162
44	84701 48 3 383 206.11463396387 581.93382662177 2 8 8 16 128
45	84749 50 4 384 206.11463396387 581.93382662177 2 80 80 160 12800
46	84799 80905 4 384 0.1 581.9 5819 0 800 800 640000
47	165704 48 4 384 206.11463396387 581.93382662177 2 0 0 0 0
48	165752 50 4 384 206.11463396387 581.93382662177 2 80 80 160 12800
49	165802 80905 4 384 0.1 581.9 5819 0 800 800 640000
50	246707 403 4 468 206.11463396387 586.18061062177 12 -0.16875936 0 -0.96595488 0.10837522427466
51	247110 194 4 396 206.11463396387 582.18061062177 8 0 2 8 12
52	247304 48 4 384 206.11463396387 581.93382662177 2 0 0 0 0
53	247352 48 4 384 206.11463396387 581.93382662177 2 0 0 0 0
54	247400 536 22 1453 206.36141819217 2255.69462338979 20 35 35 700 24500
55	247936 296 23 1454 206.36141819217 2255.69462338979 11 28 28 308 8624
56	248232 804 24 1455 206.36141819217 2255.69462338979 30 28 55 1353 66099
57	249036 834 25 1456 206.36141819217 2255.69462338979 30 368 584 15144 7969728
58	249870 352728 25 1456 0.1 2255.6 22556 0 9520 147760 1213254400
59	602598 774 25 1456 206.36141819217 2255.69462338979 30 0 0 0 0
60	603372 834 25 1456 206.36141819217 2255.69462338979 30 368 584 15144 7969728
61	604206 352728 25 1456 0.1 2255.6 22556 0 9520 147760 1213254400
62	956934 804 25 1456 206.36141819217 2255.69462338979 30 46 73 1893 124527
63	957738 774 25 1456 206.36141819217 2255.69462338979 30 0 0 0 0
64	958512 774 25 1456 206.36141819217 2255.69462338979 30 0 0 0 0
65	959286 804 33 1463 206.36141876817 2255.69462396579 30 64 73 2091 146307
66	960090 804 34 1464 206.36141881817 2255.69462401579 30 64 73 2091 146307
67	960894 804 34 1464 206.36141881817 2255.69462401579 30 64 73 2091 146307
68	961698 804 35 1465 206.36141881817 2255.69462401579 30 46 55 1551 80751
69	962502 296 36 1466 206.36141881817 2255.69462401579 11 28 28 308 8624
70	962798 296 37 1467 206.36141881817 2255.69462401579 11 28 28 308 8624
71	963094 307 38 1468 206.36141881817 2255.69462401579 11 368 368 4048 1489664
72	963401 346904 38 1468 0.1 2221.1 22211 0 3680 36800 135424000
73	1310305 258 38 1381 206.36141881817 2047.37591867616 10 0 0 0 0
74	1310563 278 38 1381 206.36141881817 2047.37591867616 10 368 368 3680 1354240
75	1310841 317703 38 1381 0.1 2047.3 20473 0 3680 33120 121881600
76	1628544 268 38 1381 206.36141881817 2047.37591867616 10 46 46 460 21160
77	1628812 258 38 1381 206.36141881817 2047.37591867616 10 0 0 0 0
78	1629070 258 38 1381 206.36141881817 2047.37591867616 10 0 0 0 0
79	1629328 268 40 1383 206.36141939417 2047.37591925216 10 64 64 640 40960
80	1629596 268 41 1384 206.36141944417 2047.37591930216 10 64 64 640 40960
81	1629864 268 41 1384 206.36141944417 2047.37591930216 10 64 64 640 40960
82	1630132 268 42 1385 206.36141944417 2047.37591930216 10 46 46 460 21160
83	1630400 527 51 1394 206.36142014217 2047.37592000016 19 440 440 8360 3678400
84	1630927 317730 51 1394 0.1 2047.3 20473 0 4400 79200 348480000
85	1948657 489 51 1394 206.36142014217 2047.37592000016 19 0 0 0 0
86	1949146 527 51 1394 206.36142014217 2047.37592000016 19 440 440 8360 3678400
87	1949673 317730 51 1394 0.1 2047.3 20473 0 4400 79200 348480000
88	2267403 508 51 1394 206.36142014217 2047.37592000016 19 62 62 1178 73036
89	2267911 489 51 1394 206.36142014217 2047.37592000016 19 0 0 0 0
90	2268400 489 51 1394 206.36142014217 2047.37592000016 19 0 0 0 0
91	2268889 508 54 1397 206.36142068817 2047.37592054616 19 62 62 1178 73036
92	2269397 508 54 1397 206.36142068817 2047.37592054616 19 55 55 1045 57475
93	2269905 527 57 1400 206.37142112817 2047.38592098616 19 440 440 8360 3678400
94	2270432 317730 57 1400 0.1 2047.3 20473 0 4400 79200 348480000
95	2588162 489 57 1400 206.37142112817 2047.38592098616 19 0 0 0 0
96	2588651 527 57 1400 206.37142112817 2047.38592098616 19 440 440 8360 3678400
97	2589178 317730 57 1400 0.1 2047.3 20473 0 4400 79200 348480000
98	2906908 508 57 1400 206.37142112817 2047.38592098616 19 62 62 1178 73036
99	2907416 489 57 1400 206.37142112817 2047.38592098616 19 0 0 0 0
100	2907905 508 57 1400 206.37142112817 2047.38592098616 19 0 0 0 0
101	2908413 527 59 1402 206.37142167417 2047.38592153216 19 62 62 1178 73036
102	2908940 527 59 1402 206.37142167417 2047.38592153216 19 55 55 1045 57475
103	2909467 278 60 1403 206.37142167417 2047.38592153216 10 28 28 280 7840
104	2909745 805 61 1417 206.37142167417 2047.38592278416 29 28 55 1325 65315
105	2910550 834 62 1418 206.37142167417 2047.38592278416 29 368 584 14776 7834304
106	2911384 338203 62 1405 0.1 2047.3 20473 0 9520 138240 1122624000
107	3249587 776 62 1418 206.37142167417 2047.38592278416 29 0 0 0 0
108	3250363 834 62 1418 206.37142167417 2047.38592278416 29 368 584 14776 7834304
109	3251197 338203 62 1405 0.1 2047.3 20473 0 9520 138240 1122624000
110	3589400 805 62 1418 206.37142167417 2047.38592278416 29 46 73 1847 122411
111	3590205 776 62 1418 206.37142167417 2047.38592278416 29 0 0 0 0
112	3590981 776 62 1418 206.37142167417 2047.38592278416 29 0 0 0 0
113	3591757 805 63 1420 206.37142225017 2047.38592343216 29 64 73 2027 142211
114	3592562 805 64 1421 206.37142230017 2047.38592348216 29 64 73 2027 142211
115	3593367 805 64 1421 206.37142230017 2047.38592348216 29 64 73 2027 142211
116	3594172 805 65 1422 206.37142230017 2047.38592348216 29 46 55 1505 78635
117	3594977 278 66 1409 206.37142230017 2047.38592215816 10 28 28 280 7840
118	3595255 278 67 1410 206.37142230017 2047.38592215816 10 28 28 280 7840
119	3595533 288 68 1411 206.37142230017 2047.38592215816 10 368 368 3680 1354240
120	3595821 338176 68 1411 0.1 2047.3 20473 0 3680 33120 121881600
121	3933997 268 68 1411 206.37142230017 2047.38592215816 10 0 0 0 0
122	3934265 288 68 1411 206.37142230017 2047.38592215816 10 368 368 3680 1354240
123	3934553 338176 68 1411 0.1 2047.3 20473 0 3680 33120 121881600
124	4272729 278 68 1411 206.37142230017 2047.38592215816 10 46 46 460 21160
125	4273007 268 68 1411 206.37142230017 2047.38592215816 10 0 0 0 0
126	4273275 268 68 1411 206.37142230017 2047.38592215816 10 0 0 0 0
127	4273543 278 70 1413 206.37142287617 2047.38592273416 10 64 64 640 40960
128	4273821 278 71 1414 206.37142292617 2047.38592278416 10 64 64 640 40960
129	4274099 278 71 1414 206.37142292617 2047.38592278416 10 64 64 640 40960
130	4274377 278 72 1415 206.37142292617 2047.38592278416 10 46 46 460 21160
131	4274655 527 81 1424 206.37142362417 2047.38592348216 19 35 35 665 23275
132	4275182 118 82 465 206.37142362417 583.39061628207 3 3.0204270311976 4.8006834831544 12.290432380118 52.144379296038
133	4275300 121 82 465 206.37142362417 583.39061628207 3 -125.19931651685 -123.49758367762 -373.89621671132 46601.390886782
134	4275421 204 84 468 207.36141796387 586.18061062177 8 0 1 4 4
135	4275625 51 85 465 207.57142362417 583.39061628207 2 0 1 1 1
136	4275676 53 90 1346 423.97647880726 2047.29783798584 2 7 7 14 98
137	4275729 53 90 1346 423.97647880726 2047.29783798584 2 2 2 4 8
138	4275782 55 91 1347 423.97647880726 2047.29783798584 2 80 80 160 12800
139	4275837 344829 91 1347 0.1 2047.2 20472 0 800 800 640000
140	4620666 53 91 1347 423.97647880726 2047.29783798584 2 0 0 0 0
141	4620719 55 91 1347 423.97647880726 2047.29783798584 2 80 80 160 12800
142	4620774 344829 91 1347 0.1 2047.2 20472 0 800 800 640000
143	4965603 444 91 1431 423.97647880726 2051.37591798584 12 -0.140407872 0 -0.739142976 0.067736002688234
144	4966047 214 91 1359 423.97647880726 2047.37591798584 8 0 2 8 12
145	4966261 53 91 1347 423.97647880726 2047.29783798584 2 0 0 0 0
146	4966314 53 91 1347 423.97647880726 2047.29783798584 2 0 0 0 0
147	4966367 122 169 1428 424.06456430358 2048.58592348216 3 6.8982574400213 11.551573385309 29.076242239923 293.94542293718
148	4966489 125 169 1428 424.06456430358 2048.58592348216 3 -115.61260601982 -113.37358858541 -342.35978319063 39073.415848159
149	4966614 216 171 1431 425.05455880726 2051.37591798584 8 0 1 4 4
150	4966830 54 172 1428 425.26456430358 2048.58592348216 2 0 1 1 1
151	4966884 108 177 1113 490.87715778648 1598.90303405131 4 7 7 28 196
152	4966992 108 177 1113 490.87715778648 1598.90303405131 4 8 8 32 256
153	4967100 112 178 1114 490.87715778648 1598.90303405131 4 80 80 320 25600
154	4967212 262573 178 1114 0.1 1598.9 15989 0 800 2400 1920000
155	5229785 108 178 1114 490.87715778648 1598.90303405131 4 0 0 0 0
156	5229893 112 178 1114 490.87715778648 1598.90303405131 4 80 80 320 25600
157	5230005 262573 178 1114 0.1 1598.9 15989 0 800 2400 1920000
158	5492578 855 178 1198 490.87715778648 1602.98111405131 24 -0.2818464 0 -3.1776096 0.58456178630784
159	5493433 432 178 1126 490.87715778648 1598.98111405131 16 0 2 16 24
160	5493865 108 178 1114 490.87715778648 1598.90303405131 4 0 0 0 0
161	5493973 108 178 1114 490.87715778648 1598.90303405131 4 0 0 0 0
162	5494081 201 228 1195 490.9652408199 1600.19111958873 5 2.3773235260372 17.874316160042 30.881658612139 365.07042939092
163	5494282 206 228 1195 490.9652408199 1600.19111958873 5 -120.2391171183 -111.47770564554 -589.61118568671 69580.876018635
164	5494488 432 230 1198 491.95523778648 1602.98111405131 16 0 1 8 8
165	5494920 107 231 1195 492.1652408199 1600.19111958873 4 0 3 6 14
166	5495027 52 236 470 505.14301067436 756.33186620626 2 8 8 16 128
167	5495079 52 236 470 505.14301067436 756.33186620626 2 8 8 16 128
168	5495131 54 237 471 505.14301067436 756.33186620626 2 80 80 160 12800
169	5495185 118400 237 471 0.1 756.3 7563 0 800 800 640000
170	5613585 52 237 471 505.14301067436 756.33186620626 2 0 0 0 0
171	5613637 54 237 471 505.14301067436 756.33186620626 2 80 80 160 12800
172	5613691 118400 237 471 0.1 756.3 7563 0 800 800 640000
173	5732091 422 237 555 505.14301067436 760.47164220626 12 -0.15110304 0 -0.82470432 0.08183908894487
174	5732513 208 237 483 505.14301067436 756.47164220626 8 0 2 8 12
175	5732721 52 237 471 505.14301067436 756.33186620626 2 0 0 0 0
176	5732773 52 237 471 505.14301067436 756.33186620626 2 0 0 0 0
177	5732825 80 260 995 505.45253247165 1348.34077213039 3 7 7 21 147
178	5732905 80 260 995 505.45253247165 1348.34077213039 3 2 2 6 12
179	5732985 83 261 996 505.45253247165 1348.34077213039 3 80 80 240 19200
180	5733068 215422 261 996 0.1 1348.3 13483 0 800 1600 1280000
181	5948490 80 261 996 505.45253247165 1348.34077213039 3 0 0 0 0
182	5948570 83 261 996 505.45253247165 1348.34077213039 3 80 80 240 19200
183	5948653 215422 261 996 0.1 1348.3 13483 0 800 1600 1280000
184	6164075 672 261 1052 505.45253247165 1352.41885213039 18 -0.210611808 0 -1.740549888 0.23858323486399
185	6164747 322 261 1008 505.45253247165 1348.41885213039 12 0 2 12 18
186	6165069 80 261 996 505.45253247165 1348.34077213039 3 0 0 0 0
187	6165149 80 261 996 505.45253247165 1348.34077213039 3 0 0 0 0
188	6165229 163 311 1049 505.54061543793 1349.62885509667 4 3.4694054112595 10.647084714405 26.116248311884 198.10788794715
189	6165392 167 311 1049 505.54061543793 1349.62885509667 4 -118.59744948476 -113.72769290419 -466.72899032085 54475.820103188
190	6165559 208 313 555 506.28278667436 760.47164220626 8 0 1 4 4
191	6165767 324 314 1052 506.53061247165 1352.41885213039 12 0 1 6 6
192	6166091 81 315 1049 506.74061543793 1349.62885509667 3 0 2 3 5
193	6166172 81 324 1054 543.33937862583 1387.83443831424 3 8 8 24 192
194	6166253 81 324 1054 543.33937862583 1387.83443831424 3 8 8 24 192
195	6166334 84 325 1055 543.33937862583 1387.83443831424 3 80 80 240 19200
196	6166418 222828 325 1055 0.1 1387.8 13878 0 800 1600 1280000
197	6389246 81 325 1055 543.33937862583 1387.83443831424 3 0 0 0 0
198	6389327 84 325 1055 543.33937862583 1387.83443831424 3 80 80 240 19200
199	6389411 222828 325 1055 0.1 1387.8 13878 0 800 1600 1280000
200	6612239 656 325 1111 543.33937862583 1391.97421431424 18 -0.22665456 0 -1.91702016 0.28471651689888
201	6612895 324 325 1067 543.33937862583 1387.97421431424 12 0 2 12 18
202	6613219 81 325 1055 543.33937862583 1387.83443831424 3 0 0 0 0
203	6613300 81 325 1055 543.33937862583 1387.83443831424 3 0 0 0 0
204	6613381 161 375 1108 543.4891577292 1389.18421741761 4 2.7066474075733 6.8707841729927 19.315145335775 103.95830329756
205	6613542 165 375 1108 543.4891577292 1389.18421741761 4 -122.67568315681 -118.62993693425 -483.56134042983 58466.302193443
206	6613707 324 377 1111 544.47915462583 1391.97421431424 12 0 1 6 6
207	6614031 80 378 1108 544.6891577292 1389.18421741761 3 0 2 3 5
208	6614111 80 549 552 756.48164780157 757.68164780157 2 2.9609833982888 4.7143597238363 7.6753431221251 30.992610290672
209	6614191 82 549 552 756.48164780157 757.68164780157 2 -122.28564027616 -122.28564027616 -244.57128055233 29907.555635503
210	6614273 26 552 552 757.68164780157 757.68164780157 1 1 1 1 1
211	6614299 52 557 1433 773.95977027569 2255.616543276 2 7 7 14 98
212	6614351 52 557 1433 773.95977027569 2255.616543276 2 8 8 16 128
213	6614403 54 558 1434 773.95977027569 2255.616543276 2 80 80 160 12800
214	6614457 382664 558 1434 0.1 2255.6 22556 0 800 800 640000
215	6997121 52 558 1434 773.95977027569 2255.616543276 2 0 0 0 0
216	6997173 54 558 1434 773.95977027569 2255.616543276 2 80 80 160 12800
217	6997227 382664 558 1434 0.1 2255.6 22556 0 800 800 640000
218	7379891 271 558 1446 773.95977027569 2255.694623276 8 -0.0769032 0 -0.3076128 0.0188838158256
219	7380162 208 558 1446 773.95977027569 2255.694623276 8 0 2 8 12
220	7380370 52 558 1434 773.95977027569 2255.616543276 2 0 0 0 0
221	7380422 52 558 1434 773.95977027569 2255.616543276 2 0 0 0 0
222	7380474 80 608 611 774.04785331748 775.24785331748 2 6.1966303225151 7.9215558785846 14.1181862011 101.14927489145
223	7380554 82 608 611 774.04785331748 775.24785331748 2 -116.07844412142 -116.07844412142 -232.15688824283 26948.410379297
224	7380636 104 610 614 775.03785027569 778.03785027569 4 0 1 2 2
225	7380740 26 611 611 775.24785331748 775.24785331748 1 0 0 0 0
226	7380766 55 762 1200 1107.89334584564 1649.05196215794 2 8 8 16 128
227	7380821 55 762 1200 1107.89334584564 1649.05196215794 2 8 8 16 128
228	7380876 57 763 1201 1107.89334584564 1649.05196215794 2 80 80 160 12800
229	7380933 271349 763 1201 0.1 1649 16490 0 800 800 640000
230	7652282 55 763 1201 1107.89334584564 1649.05196215794 2 0 0 0 0
231	7652337 57 763 1201 1107.89334584564 1649.05196215794 2 80 80 160 12800
232	7652394 271349 763 1201 0.1 1649 16490 0 800 800 640000
233	7923743 440 763 1257 1107.89334584564 1653.19173815794 12 -0.15110304 0 -0.82470432 0.08183908894487
234	7924183 220 763 1213 1107.89334584564 1649.19173815794 8 0 2 8 12
235	7924403 55 763 1201 1107.89334584564 1649.05196215794 2 0 0 0 0
236	7924458 55 763 1201 1107.89334584564 1649.05196215794 2 0 0 0 0
237	7924513 124 813 1254 1108.04312498055 1650.40174129285 3 1.7043555686626 4.1558436809177 8.4638598311971 26.95491302892
238	7924637 127 813 1254 1108.04312498055 1650.40174129285 3 -124.68439796072 -122.84415631908 -370.37271059889 45727.572578322
239	7924764 220 815 1257 1109.03312184564 1653.19173815794 8 0 1 4 4
240	7924984 55 816 1254 1109.24312498055 1650.40174129285 2 0 1 1 1
241	7925039 28 1259 1259 1872.82366687089 1872.82366687089 1 7 7 7 49
242	7925067 28 1259 1259 1872.82366687089 1872.82366687089 1 8 8 8 64
243	7925095 29 1260 1260 1872.82366687089 1872.82366687089 1 80 80 80 6400
244	7925124 322263 1260 1260 0.1 1872.8 18728 0 0 0 0
245	8247387 28 1260 1260 1872.82366687089 1872.82366687089 1 0 0 0 0
246	8247415 29 1260 1260 1872.82366687089 1872.82366687089 1 80 80 80 6400
247	8247444 322263 1260 1260 0.1 1872.8 18728 0 0 0 0
248	8569707 213 1260 1344 1872.82366687089 1876.90174687089 6 -0.0704616 0 -0.160248 0.0080048765808
249	8569920 112 1260 1272 1872.82366687089 1872.90174687089 4 0 2 4 6
250	8570032 28 1260 1260 1872.82366687089 1872.82366687089 1 0 0 0 0
251	8570060 28 1260 1260 1872.82366687089 1872.82366687089 1 0 0 0 0
252	8570088 84 1338 1341 1872.91175245007 1874.11175245007 2 4.4383091152094 6.4721754628595 10.910484578069 61.587643024192
253	8570172 86 1338 1341 1872.91175245007 1874.11175245007 2 -117.52782453714 -117.52782453714 -235.05564907428 27625.579080866
254	8570258 112 1340 1344 1873.90174687089 1876.90174687089 4 0 1 2 2
255	8570370 28 1341 1341 1874.11175245007 1874.11175245007 1 0 0 0 0
vector 256 LoRaNetworkTest.loRaNodes[6].app[0] "SF Vector" ETV
vector 257 LoRaNetworkTest.loRaNodes[6].app[0] "TP Vector" ETV
vector 258 LoRaNetworkTest.loRaNodes[6].LoRaNic.queue incomingPacketLengths:vector ETV
attr interpolationmode none
attr recordingmode vector
attr source packetLength(packetPushStarted)
attr title "incoming packet lengths"
attr unit b
vector 259 LoRaNetworkTest.loRaNodes[6].LoRaNic.queue incomingDataRate:vector ETV
attr interpolationmode linear
attr recordingmode vector
attr source throughput(packetPushStarted)
attr title "incoming datarate"
attr unit bps
vector 260 LoRaNetworkTest.loRaNodes[6].LoRaNic.queue queueingTime:vector ETV
attr interpolationmode none
attr recordingmode vector
attr source queueingTime(packetPulled)
attr title "queueing times"
attr unit s
vector 261 LoRaNetworkTest.loRaNodes[6].LoRaNic.queue outgoingPacketLengths:vector ETV
attr interpolationmode none
attr recordingmode vector
attr source packetLength(packetPulled)
attr title "outgoing packet lengths"
attr unit b
vector 262 LoRaNetworkTest.loRaNodes[6].LoRaNic.queue outgoingDataRate:vector ETV
attr interpolationmode linear
attr recordingmode vector
attr source throughput(packetPulled)
attr title "outgoing datarate"
attr unit bps
vector 263 LoRaNetworkTest.loRaNodes[6].LoRaNic.radio.IdealEpEnergyStorage residualEnergyCapacity:vector ETV
attr interpolationmode linear
attr recordingmode vector
attr source residualEnergyCapacityChanged
attr title "Residual energy capacity"
vector 264 LoRaNetworkTest.loRaNodes[6].LoRaNic.radio transmissionState:vector ETV
attr interpolationmode sample-hold
attr recordingmode vector
attr source transmissionStateChanged
attr title "Radio transmission state"
vector 265 LoRaNetworkTest.loRaNodes[6].LoRaNic.queue queueLength:vector ETV
attr autoWarmupFilter false
attr interpolationmode sample-hold
attr recordingmode vector
attr source "warmup(atomic(constant0(packetPushEnded) + count(packetPushStarted) - count(packetPulled) - count(packetRemoved) - count(packetDropped)))"
attr title "queue length"
attr unit pk
[...]
135	594485348 31 59934 59934 86365.38563618615 86365.38563618615 1 93 93 93 8649
295	594485379 45 59934 59934 86365.38563618615 86365.38563618615 1 -1.5810011726761 -1.5810011726761 -1.5810011726761 2.4995647080033
147	594485424 88 59413 59736 85626.46769860199 86087.49430040735 2 9.3081007925815 11.606858006832 20.914958799413 221.35989315561
148	594485512 90 59413 59736 85626.46769860199 86087.49430040735 2 -114.31138922611 -113.35285328493 -227.66424251104 25915.963054638
150	594485602 62 59413 59736 85626.46769860199 86087.49430040735 2 76 77 153 11705
162	594485664 44 59531 59531 85662.18827860546 85662.18827860546 1 14.814682039107 14.814682039107 14.814682039107 219.47480391984
163	594485708 45 59531 59531 85662.18827860546 85662.18827860546 1 -112.29307665152 -112.29307665152 -112.29307665152 12609.735063864
165	594485753 31 59531 59531 85662.18827860546 85662.18827860546 1 89 89 89 7921
188	594485784 44 59590 59590 85714.79873821024 85714.79873821024 1 12.562201215928 12.562201215928 12.562201215928 157.80889938947
189	594485828 45 59590 59590 85714.79873821024 85714.79873821024 1 -113.00934254534 -113.00934254534 -113.00934254534 12771.111502531
192	594485873 31 59590 59590 85714.79873821024 85714.79873821024 1 77 77 77 5929
204	594485904 44 59793 59793 86090.21166811874 86090.21166811874 1 3.2532739895587 3.2532739895587 3.2532739895587 10.583791651139
205	594485948 45 59793 59793 86090.21166811874 86090.21166811874 1 -121.87679359054 -121.87679359054 -121.87679359054 14853.95281591
207	594485993 31 59793 59793 86090.21166811874 86090.21166811874 1 83 83 83 6889
297	594486024 45 59793 59793 86090.21166811874 86090.21166811874 1 0.68749757468906 0.68749757468906 0.68749757468906 0.47265291520334
222	594486069 43 59354 59354 85613.1369806579 85613.1369806579 1 1.2680907038571 1.2680907038571 1.2680907038571 1.6080540332088
223	594486112 44 59354 59354 85613.1369806579 85613.1369806579 1 -122.96849681174 -122.96849681174 -122.96849681174 15121.251208138
225	594486156 31 59354 59354 85613.1369806579 85613.1369806579 1 100 100 100 10000
267	594486187 87 59472 59677 85655.5426801314 86054.32700153165 2 1.4554887005734 28.336982170745 29.792470871318 805.1030059026
268	594486274 88 59472 59677 85655.5426801314 86054.32700153165 2 -125.3699116178 -112.47646403079 -237.84637564858 28368.569699923
270	594486362 61 59472 59677 85655.5426801314 86054.32700153165 2 79 80 159 12641
0	594486423 58 59818 59959 86090.22167063874 86365.39563870615 2 33 34 67 2245
3	594486481 268 59350 59930 85611.9369806579 86364.18563618615 9 757 765 6849 5212149
6	594486749 500 59326 59907 85611.9369781619 86364.18563418615 18 0 1 9 9
7	594487249 112 59808 59950 86090.22166955474 86365.39563803015 4 0 1 2 2
8	594487361 500 59320 59902 85611.9269771759 86364.17563320015 18 0 1 9 9
9	594487861 112 59802 59945 86090.21166874474 86365.38563722015 4 0 1 2 2
11	594487973 1016 59244 59983 85535.15981801258 86365.48626293445 32 0 0.0825 0.91608 0.0626471208
12	594488989 508 59478 59534 85660.90019557204 85664.97827557204 16 0 0.1056 0.55044 0.0487040004
13	594489497 1266 59360 59838 85625.17961560967 86090.31229470306 40 0 0.0825 1.01211 0.0657210411
15	594490763 508 59537 59593 85713.51065524396 85717.58873524396 16 0 0.0792 0.44484 0.0291891204
16	594491271 1016 59419 59680 85654.19290095992 86057.11699585617 32 0 0.1056 1.10088 0.0974080008
17	594492287 508 59273 59357 85611.84889511211 85615.92697511211 16 0 0.0825 0.45804 0.0313235604
19	594492795 508 59739 59843 86088.86188901537 86090.31229481411 16 0 0.0825 0.45804 0.0313235604
22	594493303 290 59244 59983 85535.15981801258 86365.48626293445 10 1 3 17 35
23	594493593 1016 59244 59983 85535.15981801258 86365.48626293445 32 0 0.0825 0.91608 0.0626471208
24	594494609 174 59478 59534 85660.90019557204 85664.97827557204 6 1 3 10 20
25	594494783 508 59478 59534 85660.90019557204 85664.97827557204 16 0 0.1056 0.55044 0.0487040004
26	594495291 406 59360 59838 85625.17961560967 86090.31229470306 14 1 3 23 45
27	594495697 1266 59360 59838 85625.17961560967 86090.31229470306 40 0 0.0825 1.01211 0.0657210411
30	594496963 174 59537 59593 85713.51065524396 85717.58873524396 6 1 3 10 20
31	594497137 508 59537 59593 85713.51065524396 85717.58873524396 16 0 0.0792 0.44484 0.0291891204
32	594497645 348 59419 59680 85654.19290095992 86057.11699585617 12 1 3 20 40
33	594497993 1016 59419 59680 85654.19290095992 86057.11699585617 32 0 0.1056 1.10088 0.0974080008
34	594499009 174 59273 59357 85611.84889511211 85615.92697511211 6 1 3 10 20
35	594499183 508 59273 59357 85611.84889511211 85615.92697511211 16 0 0.0825 0.45804 0.0313235604
38	594499691 116 59739 59843 86088.86188901537 86090.31229481411 4 1 3 7 15
39	594499807 508 59739 59843 86088.86188901537 86090.31229481411 16 0 0.0825 0.45804 0.0313235604
43	594500315 29 59852 59852 86364.03585452585 86364.03585452585 1 8 8 8 64
44	594500344 29 59852 59852 86364.03585452585 86364.03585452585 1 8 8 8 64
45	594500373 30 59853 59853 86364.03585452585 86364.03585452585 1 80 80 80 6400
46	594500403 162605 59853 59990 85535.2 86400 8649 0 800 1600 1280000
47	594663008 29 59853 59853 86364.03585452585 86364.03585452585 1 0 0 0 0
48	594663037 30 59853 59853 86364.03585452585 86364.03585452585 1 80 80 80 6400
49	594663067 263278 59244 59990 84999.7 86400 14004 0 800 1600 1280000
50	594926345 484 59244 59983 85535.15981801258 86365.48626293445 11 -7.2610718183971 -7.1640454349978 -79.431066877535 573.58544156662
51	594926829 232 59244 59865 85535.15981801258 86364.17563052585 8 0 2 8 12
52	594927061 58 59244 59853 85535.15981801258 86364.03585452585 2 0 0 0 0
53	594927119 58 59244 59853 85535.15981801258 86364.03585452585 2 0 0 0 0
54	594927177 268 59292 59871 85611.9269752259 86364.17563075415 9 35 35 315 11025
55	594927445 89 59293 59872 85611.9269752259 86364.17563075415 3 28 28 84 2352
56	594927534 357 59294 59893 85611.9269752259 86364.17563200615 12 28 55 579 29577
57	594927891 369 59295 59894 85611.9269752259 86364.17563200615 12 368 584 6360 3475776
58	594928260 166034 59295 59990 85517.1 86400 8830 0 9520 69440 510630400
59	595094294 345 59295 59894 85611.9269752259 86364.17563200615 12 0 0 0 0
60	595094639 369 59295 59894 85611.9269752259 86364.17563200615 12 368 584 6360 3475776
61	595095008 166034 59295 59990 85517.1 86400 8830 0 9520 69440 510630400
62	595261042 357 59295 59894 85611.9269752259 86364.17563200615 12 46 73 795 54309
63	595261399 345 59295 59894 85611.9269752259 86364.17563200615 12 0 0 0 0
64	595261744 345 59295 59894 85611.9269752259 86364.17563200615 12 0 0 0 0
65	595262089 357 59302 59896 85611.9269758019 86364.17563265415 12 64 73 849 60249
66	595262446 357 59303 59897 85611.9269758519 86364.17563270415 12 64 73 849 60249
67	595262803 357 59303 59897 85611.9269758519 86364.17563270415 12 64 73 849 60249
68	595263160 357 59304 59898 85611.9269758519 86364.17563270415 12 46 55 633 33573
69	595263517 89 59305 59885 85611.9269758519 86364.17563138015 3 28 28 84 2352
70	595263606 149 59306 59953 85611.9269758519 86365.39563808015 5 28 44 172 6224
71	595263755 154 59307 59954 85611.9269758519 86365.39563808015 5 368 496 2096 898304
72	595263909 185574 59307 59990 85413.1 86400 9870 0 4960 24640 103372800
73	595449483 144 59307 59954 85611.9269758519 86365.39563808015 5 0 0 0 0
74	595449627 154 59307 59954 85611.9269758519 86365.39563808015 5 368 496 2096 898304
75	595449781 185574 59307 59990 85413.1 86400 9870 0 4960 24640 103372800
76	595635355 149 59307 59954 85611.9269758519 86365.39563808015 5 46 62 262 14036
77	595635504 144 59307 59954 85611.9269758519 86365.39563808015 5 0 0 0 0
78	595635648 144 59307 59954 85611.9269758519 86365.39563808015 5 0 0 0 0
79	595635792 149 59309 59955 85611.9269764279 86365.39563865615 5 64 64 320 20480
80	595635941 149 59310 59956 85611.9269764779 86365.39563870615 5 64 64 320 20480
81	595636090 149 59310 59956 85611.9269764779 86365.39563870615 5 64 64 320 20480
82	595636239 149 59311 59957 85611.9269764779 86365.39563870615 5 46 46 230 10580
83	595636388 277 59320 59900 85611.9269771759 86364.17563270415 9 440 440 3960 1742400
84	595636665 166034 59320 59990 85517.1 86400 8830 0 4400 44000 193600000
85	595802699 259 59320 59900 85611.9269771759 86364.17563270415 9 0 0 0 0
86	595802958 277 59320 59900 85611.9269771759 86364.17563270415 9 440 440 3960 1742400
87	595803235 166034 59320 59990 85517.1 86400 8830 0 4400 44000 193600000
88	595969269 268 59320 59900 85611.9269771759 86364.17563270415 9 62 62 558 34596
89	595969537 259 59320 59900 85611.9269771759 86364.17563270415 9 0 0 0 0
90	595969796 259 59320 59900 85611.9269771759 86364.17563270415 9 0 0 0 0
91	595970055 268 59323 59903 85611.9269777219 86364.17563325015 9 62 62 558 34596
92	595970323 268 59323 59903 85611.9269777219 86364.17563325015 9 55 55 495 27225
93	595970591 277 59326 59906 85611.9369781619 86364.18563369015 9 440 440 3960 1742400
94	595970868 166034 59326 59990 85517.1 86400 8830 0 4400 44000 193600000
95	596136902 259 59326 59906 85611.9369781619 86364.18563369015 9 0 0 0 0
96	596137161 277 59326 59906 85611.9369781619 86364.18563369015 9 440 440 3960 1742400
97	596137438 166034 59326 59990 85517.1 86400 8830 0 4400 44000 193600000
98	596303472 268 59326 59906 85611.9369781619 86364.18563369015 9 62 62 558 34596
99	596303740 259 59326 59906 85611.9369781619 86364.18563369015 9 0 0 0 0
100	596303999 268 59326 59906 85611.9369781619 86364.18563369015 9 0 0 0 0
101	596304267 277 59328 59908 85611.9369787079 86364.18563423615 9 62 62 558 34596
102	596304544 277 59328 59908 85611.9369787079 86364.18563423615 9 55 55 495 27225
103	596304821 92 59329 59909 85611.9369787079 86364.18563423615 3 28 28 84 2352
104	596304913 369 59330 59923 85611.9369787079 86364.18563548815 12 28 55 579 29577
105	596305282 381 59331 59924 85611.9369787079 86364.18563548815 12 368 584 6360 3475776
106	596305663 174864 59331 59990 85517.1 86400 8830 0 9520 69440 510630400
107	596480527 357 59331 59924 85611.9369787079 86364.18563548815 12 0 0 0 0
108	596480884 381 59331 59924 85611.9369787079 86364.18563548815 12 368 584 6360 3475776
109	596481265 174864 59331 59990 85517.1 86400 8830 0 9520 69440 510630400
110	596656129 369 59331 59924 85611.9369787079 86364.18563548815 12 46 73 795 54309
111	596656498 357 59331 59924 85611.9369787079 86364.18563548815 12 0 0 0 0
112	596656855 357 59331 59924 85611.9369787079 86364.18563548815 12 0 0 0 0
113	596657212 369 59332 59926 85611.9369792839 86364.18563613615 12 64 73 849 60249
114	596657581 369 59333 59927 85611.9369793339 86364.18563618615 12 64 73 849 60249
115	596657950 369 59333 59927 85611.9369793339 86364.18563618615 12 64 73 849 60249
116	596658319 369 59334 59928 85611.9369793339 86364.18563618615 12 46 55 633 33573
117	596658688 92 59335 59915 85611.9369793339 86364.18563486215 3 28 28 84 2352
118	596658780 154 59336 59937 85611.9369793339 86365.38563618615 5 28 44 172 6224
119	596658934 159 59337 59938 85611.9369793339 86365.38563618615 5 368 496 2096 898304
120	596659093 195444 59337 59990 85413.1 86400 9870 0 4960 24640 103372800
121	596854537 149 59337 59938 85611.9369793339 86365.38563618615 5 0 0 0 0
122	596854686 159 59337 59938 85611.9369793339 86365.38563618615 5 368 496 2096 898304
123	596854845 195444 59337 59990 85413.1 86400 9870 0 4960 24640 103372800
124	597050289 154 59337 59938 85611.9369793339 86365.38563618615 5 46 62 262 14036
125	597050443 149 59337 59938 85611.9369793339 86365.38563618615 5 0 0 0 0
126	597050592 149 59337 59938 85611.9369793339 86365.38563618615 5 0 0 0 0
127	597050741 154 59339 59939 85611.9369799099 86365.38563676215 5 64 64 320 20480
128	597050895 154 59340 59940 85611.9369799599 86365.38563681215 5 64 64 320 20480
129	597051049 154 59340 59940 85611.9369799599 86365.38563681215 5 64 64 320 20480
130	597051203 154 59341 59941 85611.9369799599 86365.38563681215 5 46 46 230 10580
131	597051357 277 59350 59930 85611.9369806579 86364.18563618615 9 35 35 315 11025
134	597051634 240 59267 59983 85536.29959401258 86365.48626293445 8 0 3 7 13
136	597051874 60 59359 59682 85625.17961560967 86086.20621741503 2 7 7 14 98
137	597051934 60 59359 59682 85625.17961560967 86086.20621741503 2 5 5 10 50
138	597051994 62 59360 59683 85625.17961560967 86086.20621741503 2 80 80 160 12800
139	597052056 181156 59360 59990 85485.2 86400 9149 0 800 2400 1920000
140	597233212 60 59360 59683 85625.17961560967 86086.20621741503 2 0 0 0 0
141	597233272 62 59360 59683 85625.17961560967 86086.20621741503 2 80 80 160 12800
142	597233334 181156 59360 59990 85485.2 86400 9149 0 800 2400 1920000
143	597414490 585 59360 59837 85625.17961560967 86090.31229470306 13 -5.3192399682276 -5.1774205750378 -68.189547787631 357.70597907914
144	597415075 240 59360 59695 85625.17961560967 86086.28429741503 8 0 2 8 12
145	597415315 60 59360 59683 85625.17961560967 86086.20621741503 2 0 0 0 0
146	597415375 60 59360 59683 85625.17961560967 86086.20621741503 2 0 0 0 0
149	597415435 360 59412 59838 85626.25769560967 86090.31229470306 12 0 3 9 15
151	597415795 30 59477 59477 85660.90019557204 85660.90019557204 1 7 7 7 49
152	597415825 31 59477 59477 85660.90019557204 85660.90019557204 1 11 11 11 121
153	597415856 31 59478 59478 85660.90019557204 85660.90019557204 1 80 80 80 6400
154	597415887 399210 59478 59990 84383.9 86400 20162 0 800 1600 1280000
155	597815097 30 59478 59478 85660.90019557204 85660.90019557204 1 0 0 0 0
156	597815127 31 59478 59478 85660.90019557204 85660.90019557204 1 80 80 80 6400
157	597815158 399210 59478 59990 84383.9 86400 20162 0 800 1600 1280000
158	598214368 270 59478 59534 85660.90019557204 85664.97827557204 6 -6.1284536733439 -6.0561884253439 -36.506396792064 222.12332515088
159	598214638 120 59478 59490 85660.90019557204 85660.97827557204 4 0 2 4 6
160	598214758 30 59478 59478 85660.90019557204 85660.90019557204 1 0 0 0 0
161	598214788 30 59478 59478 85660.90019557204 85660.90019557204 1 0 0 0 0
164	598214818 120 59530 59534 85661.97827557204 85664.97827557204 4 0 1 2 2
169	598214938 401882 59990 59990 84370.4 86400 20297 0 800 800 640000
172	598616820 401882 59990 59990 84370.4 86400 20297 0 800 800 640000
177	599018702 30 59536 59536 85713.51065524396 85713.51065524396 1 7 7 7 49
178	599018732 30 59536 59536 85713.51065524396 85713.51065524396 1 2 2 2 4
179	599018762 31 59537 59537 85713.51065524396 85713.51065524396 1 80 80 80 6400
180	599018793 195448 59537 59990 85413 86400 9871 0 800 1600 1280000
181	599214241 30 59537 59537 85713.51065524396 85713.51065524396 1 0 0 0 0
182	599214271 31 59537 59537 85713.51065524396 85713.51065524396 1 80 80 80 6400
183	599214302 195448 59537 59990 85413 86400 9871 0 800 1600 1280000
184	599409750 270 59537 59593 85713.51065524396 85717.58873524396 6 -5.3093256101896 -5.2391216741896 -31.593689725137 166.36391633965
185	599410020 120 59537 59549 85713.51065524396 85713.58873524396 4 0 2 4 6
186	599410140 30 59537 59537 85713.51065524396 85713.51065524396 1 0 0 0 0
187	599410170 30 59537 59537 85713.51065524396 85713.51065524396 1 0 0 0 0
191	599410200 120 59589 59593 85714.58873524396 85717.58873524396 4 0 1 2 2
193	599410320 30 59738 59738 86088.86188901537 86088.86188901537 1 8 8 8 64
194	599410350 30 59738 59738 86088.86188901537 86088.86188901537 1 8 8 8 64
195	599410380 31 59739 59739 86088.86188901537 86088.86188901537 1 80 80 80 6400
196	599410411 273996 59739 59990 85016.3 86400 13838 0 800 1600 1280000
197	599684407 30 59739 59739 86088.86188901537 86088.86188901537 1 0 0 0 0
198	599684437 31 59739 59739 86088.86188901537 86088.86188901537 1 80 80 80 6400
199	599684468 273996 59739 59990 85016.3 86400 13838 0 800 1600 1280000
200	599958464 222 59739 59843 86088.86188901537 86090.31229481411 5 -6.1300207995837 -6.108546019726 -30.605841824106 187.3437862425
201	599958686 120 59739 59751 86088.86188901537 86089.00166501537 4 0 2 4 6
202	599958806 30 59739 59739 86088.86188901537 86088.86188901537 1 0 0 0 0
203	599958836 30 59739 59739 86088.86188901537 86088.86188901537 1 0 0 0 0
206	599958866 120 59792 59843 86090.00166501537 86090.31229481411 4 0 3 5 11
211	599958986 30 59272 59272 85611.84889511211 85611.84889511211 1 7 7 7 49
212	599959016 30 59272 59272 85611.84889511211 85611.84889511211 1 5 5 5 25
213	599959046 31 59273 59273 85611.84889511211 85611.84889511211 1 80 80 80 6400
214	599959077 225526 59273 59990 85261.1 86400 11390 0 800 1600 1280000
215	600184603 30 59273 59273 85611.84889511211 85611.84889511211 1 0 0 0 0
216	600184633 31 59273 59273 85611.84889511211 85611.84889511211 1 80 80 80 6400
217	600184664 225526 59273 59990 85261.1 86400 11390 0 800 1600 1280000
218	600410190 270 59273 59357 85611.84889511211 85615.92697511211 6 -6.9666587951812 -6.8961971951812 -41.537431171087 287.5634230218
219	600410460 120 59273 59285 85611.84889511211 85611.92697511211 4 0 2 4 6
220	600410580 30 59273 59273 85611.84889511211 85611.84889511211 1 0 0 0 0
221	600410610 30 59273 59273 85611.84889511211 85611.84889511211 1 0 0 0 0
224	600410640 120 59353 59357 85612.92697511211 85615.92697511211 4 0 1 2 2
229	600410760 259400 59990 59990 85090 86400 13101 0 800 800 640000
232	600670160 259400 59990 59990 85090 86400 13101 0 800 800 640000
244	600929560 174854 59990 59990 85517 86400 8831 0 800 800 640000
247	601104414 174854 59990 59990 85517 86400 8831 0 800 800 640000
256	601279268 60 59418 59595 85654.19290095992 86052.97721985617 2 8 8 16 128
257	601279328 62 59418 59595 85654.19290095992 86052.97721985617 2 11 11 22 242
258	601279390 62 59419 59596 85654.19290095992 86052.97721985617 2 80 80 160 12800
259	601279452 257582 59419 59990 85099.2 86400 13009 0 800 1600 1280000
260	601537034 60 59419 59596 85654.19290095992 86052.97721985617 2 0 0 0 0
261	601537094 62 59419 59596 85654.19290095992 86052.97721985617 2 80 80 160 12800
262	601537156 257582 59419 59990 85099.2 86400 13009 0 800 1600 1280000
263	601794738 540 59419 59680 85654.19290095992 86057.11699585617 12 -6.2397050344072 -6.0821443432072 -73.862097648087 454.66119543329
264	601795278 240 59419 59608 85654.19290095992 86053.11699585617 8 0 2 8 12
265	601795518 60 59419 59596 85654.19290095992 86052.97721985617 2 0 0 0 0
266	601795578 60 59419 59596 85654.19290095992 86052.97721985617 2 0 0 0 0
269	601795638 240 59471 59680 85655.33267695992 86057.11699585617 8 0 1 4 4
272	601795878 62 59794 59935 86090.21166811874 86365.38563618615 2 24 24 48 1152
273	601795940 64 59802 59943 86090.21166874474 86365.38563681215 2 352 352 704 247808
274	601796004 15347 59943 59990 86322.6 86400 775 0 3520 3520 12390400
275	601811351 60 59802 59943 86090.21166874474 86365.38563681215 2 0 0 0 0
276	601811411 64 59802 59943 86090.21166874474 86365.38563681215 2 352 352 704 247808
277	601811475 15347 59943 59990 86322.6 86400 775 0 3520 3520 12390400
278	601826822 62 59802 59943 86090.21166874474 86365.38563681215 2 51 51 102 5202
279	601826884 60 59802 59943 86090.21166874474 86365.38563681215 2 0 0 0 0
280	601826944 60 59802 59943 86090.21166874474 86365.38563681215 2 0 0 0 0
281	601827004 62 59805 59946 86090.21166920274 86365.38563727015 2 51 51 102 5202
282	601827066 62 59805 59946 86090.21166920274 86365.38563727015 2 44 44 88 3872
283	601827128 64 59808 59949 86090.22166955474 86365.39563762215 2 352 352 704 247808
284	601827192 15347 59949 59990 86322.6 86400 775 0 3520 3520 12390400
285	601842539 60 59808 59949 86090.22166955474 86365.39563762215 2 0 0 0 0
286	601842599 64 59808 59949 86090.22166955474 86365.39563762215 2 352 352 704 247808
287	601842663 15347 59949 59990 86322.6 86400 775 0 3520 3520 12390400
288	601858010 62 59808 59949 86090.22166955474 86365.39563762215 2 51 51 102 5202
289	601858072 60 59808 59949 86090.22166955474 86365.39563762215 2 0 0 0 0
290	601858132 60 59808 59949 86090.22166955474 86365.39563762215 2 0 0 0 0
291	601858192 62 59810 59951 86090.22167001274 86365.39563808015 2 51 51 102 5202
292	601858254 62 59810 59951 86090.22167001274 86365.39563808015 2 44 44 88 3872
293	601858316 62 59818 59959 86090.22167063874 86365.39563870615 2 24 24 48 1152

