file 2533914541 1684494787                                      
version 3
run General-0-20230519-12:58:40-59336
attr configname General
attr datetime 20230519-12:58:40
attr datetimef 20230519-125840
attr experiment General
attr inifile n10-gw1-noADR_moving.ini
attr iterationvars "$0=\"avg\""
attr iterationvarsd avg
attr iterationvarsf avg-
attr measurement "$0=\"avg\""
attr network loraSimulation.LoRaNetwork_moving
attr processid 59336
attr repetition 0
attr replication #0
attr resultdir results
attr runnumber 0
attr seedset 0
config image-path ../../../../../Downloads/omnetpp-6.0.1/samples/inet4.4/images
config network loraSimulation.LoRaNetwork_moving
config output-vector-file ../results/n10-gw1-noADR-moving-s0.ini.vec
config record-eventlog true
config **.maxTransmissionDuration 4s
config **.energyDetection -110dBm
config **.vector-recording true
config rng-class cMersenneTwister
config **.loRaGW_moving[*].numUdpApps 1
config **.loRaGW_moving[0].packetForwarder.localPort 2000
config **.loRaGW_moving[0].packetForwarder.destPort 1000
config **.loRaGW_moving[0].packetForwarder.destAddresses "\"networkServer\""
config **.loRaGW_moving[0].packetForwarder.indexNumber 0
config **.networkServer.numApps 1
config **.networkServer.**.evaluateADRinServer false
config **.networkServer.app[0].typename NetworkServerApp
config **.networkServer.app[0].destAddresses "\"loRaGW[0]\""
config **.networkServer.app[0].destPort 2000
config **.networkServer.app[0].localPort 1000
config **.networkServer.app[0].adrMethod "\"avg\""
config **.loRaNodes[0].app[0].numberOfPacketsToSend 5500
config **.loRaNodes[1].app[0].numberOfPacketsToSend 5700
config **.loRaNodes[2].app[0].numberOfPacketsToSend 5900
config **.loRaNodes[3].app[0].numberOfPacketsToSend 6100
config **.loRaNodes[4].app[0].numberOfPacketsToSend 6300
config **.loRaNodes[5].app[0].numberOfPacketsToSend 6500
config **.loRaNodes[6].app[0].numberOfPacketsToSend 6700
config **.loRaNodes[7].app[0].numberOfPacketsToSend 6900
config **.loRaNodes[8].app[0].numberOfPacketsToSend 7100
config **.loRaNodes[9].app[0].numberOfPacketsToSend 7300
config sim-time-limit 10d
config simtime-resolution -11
config repeat 1
config **.timeToFirstPacket exponential(10s)
config **.timeToNextPacket exponential(10s)
config **.alohaChannelModel false
config **.loRaNodes[*].**.initFromDisplayString false
config **.loRaNodes[*].**.evaluateADRinNode false
config **.loRaNodes[*].**initialLoRaBW "500 kHz"
config **.loRaNodes[*].**initialLoRaCR 4
config **.loRaNodes[*].**initialLoRaSF 7
config **.loRaNodes[*].numApps 1
config **.loRaNodes[*].app[0].typename SimpleLoRaApp
config **.LoRaGWNic.radio.iAmGateway true
config **.loRaGW_moving[*].**.initFromDisplayString false
config **.loRaNodes[*].LoRaNic.radio.energyConsumer.typename LoRaEnergyConsumer
config **.loRaNodes[*].**.energySourceModule "\"^.IdealEpEnergyStorage\""
config **.loRaNodes[*].LoRaNic.radio.energyConsumer.configFile "xmldoc(\"../energyConsumptionParameters.xml\")"
config **.sigma 3.57
config LoRaNetwork_moving.**.radio.separateTransmissionParts false
config LoRaNetwork_moving.**.radio.separateReceptionParts false
config **.ipv4Delayer.config "xmldoc(\"../cloudDelays.xml\")"
config **.radio.radioMediumModule "\"LoRaMedium\""
config **.LoRaMedium.pathLoss.typename NakagamiFading
config **.minInterferenceTime 0s
config **.displayAddresses false
config **.numberOfNodes 10
config **.numberOfGateways 1
config output-scalar-file ../results/n10-gw1-noADR-moving-s0.ini.sca
config **.loRaGW_moving[0].**.cx 452m
config **.loRaGW_moving[0].**.cy 426m
config **.loRaGW_moving[0].**.cz 100m
config **.loRaGW_moving[0].**.r 200m
config **.loRaGW_moving[0].**.speed 0.1mps
config **.loRaGW_moving[0].**.startAngle 0deg
config **.loRaNodes[0].**.initialX 822.0194698360865m
config **.loRaNodes[0].**.initialY 739.4046194171533m
config **.loRaNodes[0].**.initialZ 23m
config **.loRaNodes[1].**.initialX 263.9939801048604m
config **.loRaNodes[1].**.initialY 299.80550314765424m
config **.loRaNodes[1].**.initialZ 23m
config **.loRaNodes[2].**.initialX 468.6109037408023m
config **.loRaNodes[2].**.initialY 606.6390164084733m
config **.loRaNodes[2].**.initialZ 23m
config **.loRaNodes[3].**.initialX 677.377121595724m
config **.loRaNodes[3].**.initialY 311.6158274188638m
config **.loRaNodes[3].**.initialZ 5.1m
config **.loRaNodes[4].**.initialX 734.4841017249855m
config **.loRaNodes[4].**.initialY 487.4600875368342m
config **.loRaNodes[4].**.initialZ 23m
config **.loRaNodes[5].**.initialX 714.6851075206068m
config **.loRaNodes[5].**.initialY 205.09913122281432m
config **.loRaNodes[5].**.initialZ 19m
config **.loRaNodes[6].**.initialX 403.5160410553799m
config **.loRaNodes[6].**.initialY 136.8531596083194m
config **.loRaNodes[6].**.initialZ 23m
config **.loRaNodes[7].**.initialX 220.07116886903532m
config **.loRaNodes[7].**.initialY 212.38414978329092m
config **.loRaNodes[7].**.initialZ 23m
config **.loRaNodes[8].**.initialX 108.28748674801318m
config **.loRaNodes[8].**.initialY 581.6178667871282m
config **.loRaNodes[8].**.initialZ 19m
config **.loRaNodes[9].**.initialX 511.31633024220355m
config **.loRaNodes[9].**.initialY 295.69291112665087m
config **.loRaNodes[9].**.initialZ 23m
config **.LoRaMedium.obstacleLoss.typename DielectricObstacleLoss
config *.physicalEnvironment.config "xmldoc(\"buildings_pyproj.xml\")"

vector 0 LoRaNetwork_moving.loRaGW_moving[0].udp passedUpPk:vector(count) ETV
attr interpolationmode none
attr recordingmode vector(count)
attr source packetSentToUpper
attr title "packets passed up, count"
vector 1 LoRaNetwork_moving.loRaGW_moving[0].udp droppedPkWrongPort:vector(count) ETV
attr interpolationmode none
attr recordingmode vector(count)
attr source packetDropReasonIsNoPortFound(packetDropped)
attr title "packets dropped (wrong port), count"
vector 2 LoRaNetwork_moving.loRaGW_moving[0].udp droppedPkBadChecksum:vector(count) ETV
attr interpolationmode none
attr recordingmode vector(count)
attr source packetDropReasonIsIncorrectlyReceived(packetDropped)
attr title "packets dropped (checksum error), count"
vector 3 LoRaNetwork_moving.networkServer.udp passedUpPk:vector(count) ETV
attr interpolationmode none
attr recordingmode vector(count)
attr source packetSentToUpper
attr title "packets passed up, count"
vector 4 LoRaNetwork_moving.networkServer.udp droppedPkWrongPort:vector(count) ETV
attr interpolationmode none
attr recordingmode vector(count)
attr source packetDropReasonIsNoPortFound(packetDropped)
attr title "packets dropped (wrong port), count"
vector 5 LoRaNetwork_moving.networkServer.udp droppedPkBadChecksum:vector(count) ETV
attr interpolationmode none
attr recordingmode vector(count)
attr source packetDropReasonIsIncorrectlyReceived(packetDropped)
attr title "packets dropped (checksum error), count"
vector 6 LoRaNetwork_moving.internetCloud.ppp[0].ppp transmissionState:vector ETV
attr interpolationmode sample-hold
attr recordingmode vector
attr source transmissionStateChanged
attr title "tx state"
vector 7 LoRaNetwork_moving.internetCloud.ppp[1].ppp transmissionState:vector ETV
attr interpolationmode sample-hold
attr recordingmode vector
attr source transmissionStateChanged
attr title "tx state"
vector 8 LoRaNetwork_moving.gwRouter[0].ppp[0].ppp transmissionState:vector ETV
attr interpolationmode sample-hold
attr recordingmode vector
attr source transmissionStateChanged
attr title "tx state"
vector 9 LoRaNetwork_moving.nsRouter.ppp[0].ppp transmissionState:vector ETV
attr interpolationmode sample-hold
attr recordingmode vector
attr source transmissionStateChanged
attr title "tx state"
vector 10 LoRaNetwork_moving.loRaNodes[0].LoRaNic.radio.IdealEpEnergyStorage powerConsumption:vector ETV
attr interpolationmode sample-hold
attr recordingmode vector
attr source powerConsumptionChanged
attr title "Power consumption"
vector 11 LoRaNetwork_moving.loRaNodes[1].LoRaNic.radio.IdealEpEnergyStorage powerConsumption:vector ETV
attr interpolationmode sample-hold
attr recordingmode vector
attr source powerConsumptionChanged
attr title "Power consumption"
vector 12 LoRaNetwork_moving.loRaNodes[2].LoRaNic.radio.IdealEpEnergyStorage powerConsumption:vector ETV
attr interpolationmode sample-hold
attr recordingmode vector
attr source powerConsumptionChanged
attr title "Power consumption"
vector 13 LoRaNetwork_moving.loRaNodes[3].LoRaNic.radio.IdealEpEnergyStorage powerConsumption:vector ETV
attr interpolationmode sample-hold
attr recordingmode vector
attr source powerConsumptionChanged
attr title "Power consumption"
vector 14 LoRaNetwork_moving.loRaNodes[4].LoRaNic.radio.IdealEpEnergyStorage powerConsumption:vector ETV
attr interpolationmode sample-hold
attr recordingmode vector
attr source powerConsumptionChanged
attr title "Power consumption"
vector 15 LoRaNetwork_moving.loRaNodes[5].LoRaNic.radio.IdealEpEnergyStorage powerConsumption:vector ETV
attr interpolationmode sample-hold
attr recordingmode vector
attr source powerConsumptionChanged
attr title "Power consumption"
vector 16 LoRaNetwork_moving.loRaNodes[6].LoRaNic.radio.IdealEpEnergyStorage powerConsumption:vector ETV
attr interpolationmode sample-hold
attr recordingmode vector
attr source powerConsumptionChanged
attr title "Power consumption"
vector 17 LoRaNetwork_moving.loRaNodes[7].LoRaNic.radio.IdealEpEnergyStorage powerConsumption:vector ETV
attr interpolationmode sample-hold
attr recordingmode vector
attr source powerConsumptionChanged
attr title "Power consumption"
vector 18 LoRaNetwork_moving.loRaNodes[8].LoRaNic.radio.IdealEpEnergyStorage powerConsumption:vector ETV
attr interpolationmode sample-hold
attr recordingmode vector
attr source powerConsumptionChanged
attr title "Power consumption"
vector 19 LoRaNetwork_moving.loRaNodes[9].LoRaNic.radio.IdealEpEnergyStorage powerConsumption:vector ETV
attr interpolationmode sample-hold
attr recordingmode vector
attr source powerConsumptionChanged
attr title "Power consumption"
vector 20 LoRaNetwork_moving.loRaNodes[0].LoRaNic.radio radioMode:vector ETV
attr interpolationmode sample-hold
attr recordingmode vector
attr source radioModeChanged
attr title "Radio mode"
vector 21 LoRaNetwork_moving.loRaNodes[0].LoRaNic.radio.energyConsumer powerConsumption:vector ETV
attr interpolationmode sample-hold
attr recordingmode vector
attr source powerConsumptionChanged
attr title "Power consumption"
vector 22 LoRaNetwork_moving.loRaNodes[1].LoRaNic.radio radioMode:vector ETV
attr interpolationmode sample-hold
attr recordingmode vector
attr source radioModeChanged
attr title "Radio mode"
vector 23 LoRaNetwork_moving.loRaNodes[1].LoRaNic.radio.energyConsumer powerConsumption:vector ETV
attr interpolationmode sample-hold
attr recordingmode vector
attr source powerConsumptionChanged
attr title "Power consumption"
vector 24 LoRaNetwork_moving.loRaNodes[2].LoRaNic.radio radioMode:vector ETV
attr interpolationmode sample-hold
attr recordingmode vector
attr source radioModeChanged
attr title "Radio mode"
vector 25 LoRaNetwork_moving.loRaNodes[2].LoRaNic.radio.energyConsumer powerConsumption:vector ETV
attr interpolationmode sample-hold
attr recordingmode vector
attr source powerConsumptionChanged
attr title "Power consumption"
vector 26 LoRaNetwork_moving.loRaNodes[3].LoRaNic.radio radioMode:vector ETV
attr interpolationmode sample-hold
attr recordingmode vector
attr source radioModeChanged
attr title "Radio mode"
vector 27 LoRaNetwork_moving.loRaNodes[3].LoRaNic.radio.energyConsumer powerConsumption:vector ETV
attr interpolationmode sample-hold
attr recordingmode vector
attr source powerConsumptionChanged
attr title "Power consumption"
vector 28 LoRaNetwork_moving.loRaNodes[4].LoRaNic.radio radioMode:vector ETV
attr interpolationmode sample-hold
attr recordingmode vector
attr source radioModeChanged
attr title "Radio mode"
vector 29 LoRaNetwork_moving.loRaNodes[4].LoRaNic.radio.energyConsumer powerConsumption:vector ETV
attr interpolationmode sample-hold
attr recordingmode vector
attr source powerConsumptionChanged
attr title "Power consumption"
vector 30 LoRaNetwork_moving.loRaNodes[5].LoRaNic.radio radioMode:vector ETV
attr interpolationmode sample-hold
attr recordingmode vector
attr source radioModeChanged
attr title "Radio mode"
vector 31 LoRaNetwork_moving.loRaNodes[5].LoRaNic.radio.energyConsumer powerConsumption:vector ETV
attr interpolationmode sample-hold
attr recordingmode vector
attr source powerConsumptionChanged
attr title "Power consumption"
vector 32 LoRaNetwork_moving.loRaNodes[6].LoRaNic.radio radioMode:vector ETV
attr interpolationmode sample-hold
attr recordingmode vector
attr source radioModeChanged
attr title "Radio mode"
vector 33 LoRaNetwork_moving.loRaNodes[6].LoRaNic.radio.energyConsumer powerConsumption:vector ETV
attr interpolationmode sample-hold
attr recordingmode vector
attr source powerConsumptionChanged
attr title "Power consumption"
vector 34 LoRaNetwork_moving.loRaNodes[7].LoRaNic.radio radioMode:vector ETV
attr interpolationmode sample-hold
attr recordingmode vector
attr source radioModeChanged
attr title "Radio mode"
vector 35 LoRaNetwork_moving.loRaNodes[7].LoRaNic.radio.energyConsumer powerConsumption:vector ETV
attr interpolationmode sample-hold
attr recordingmode vector
attr source powerConsumptionChanged
attr title "Power consumption"
vector 36 LoRaNetwork_moving.loRaNodes[8].LoRaNic.radio radioMode:vector ETV
attr interpolationmode sample-hold
attr recordingmode vector
attr source radioModeChanged
attr title "Radio mode"
vector 37 LoRaNetwork_moving.loRaNodes[8].LoRaNic.radio.energyConsumer powerConsumption:vector ETV
attr interpolationmode sample-hold
attr recordingmode vector
attr source powerConsumptionChanged
attr title "Power consumption"
vector 38 LoRaNetwork_moving.loRaNodes[9].LoRaNic.radio radioMode:vector ETV
attr interpolationmode sample-hold
attr recordingmode vector
attr source radioModeChanged
attr title "Radio mode"
vector 39 LoRaNetwork_moving.loRaNodes[9].LoRaNic.radio.energyConsumer powerConsumption:vector ETV
attr interpolationmode sample-hold
attr recordingmode vector
attr source powerConsumptionChanged
attr title "Power consumption"
vector 40 LoRaNetwork_moving.loRaGW_moving[0].LoRaGWNic.radio radioMode:vector ETV
attr interpolationmode sample-hold
attr recordingmode vector
attr source radioModeChanged
attr title "Radio mode"
vector 41 LoRaNetwork_moving.loRaGW_moving[0].LoRaGWNic.radio receptionState:vector ETV
attr interpolationmode sample-hold
attr recordingmode vector
attr source receptionStateChanged
attr title "Radio reception state"
vector 42 LoRaNetwork_moving.loRaGW_moving[0].LoRaGWNic.radio transmissionState:vector ETV
attr interpolationmode sample-hold
attr recordingmode vector
attr source transmissionStateChanged
attr title "Radio transmission state"
vector 43 LoRaNetwork_moving.loRaNodes[8].app[0] "SF Vector" ETV
vector 44 LoRaNetwork_moving.loRaNodes[8].app[0] "TP Vector" ETV
vector 45 LoRaNetwork_moving.loRaNodes[8].LoRaNic.queue incomingPacketLengths:vector ETV
attr interpolationmode none
attr recordingmode vector
attr source packetLength(packetPushStarted)
attr title "incoming packet lengths"
attr unit b
vector 46 LoRaNetwork_moving.loRaNodes[8].LoRaNic.queue incomingDataRate:vector ETV
attr interpolationmode linear
attr recordingmode vector
attr source throughput(packetPushStarted)
attr title "incoming datarate"
attr unit bps
vector 47 LoRaNetwork_moving.loRaNodes[8].LoRaNic.queue queueingTime:vector ETV
attr interpolationmode none
attr recordingmode vector
attr source queueingTime(packetPulled)
attr title "queueing times"
attr unit s
vector 48 LoRaNetwork_moving.loRaNodes[8].LoRaNic.queue outgoingPacketLengths:vector ETV
attr interpolationmode none
attr recordingmode vector
attr source packetLength(packetPulled)
attr title "outgoing packet lengths"
attr unit b
vector 49 LoRaNetwork_moving.loRaNodes[8].LoRaNic.queue outgoingDataRate:vector ETV
attr interpolationmode linear
attr recordingmode vector
attr source throughput(packetPulled)
attr title "outgoing datarate"
attr unit bps
vector 50 LoRaNetwork_moving.loRaNodes[8].LoRaNic.radio.IdealEpEnergyStorage residualEnergyCapacity:vector ETV
attr interpolationmode linear
attr recordingmode vector
attr source residualEnergyCapacityChanged
attr title "Residual energy capacity"
vector 51 LoRaNetwork_moving.loRaNodes[8].LoRaNic.radio transmissionState:vector ETV
attr interpolationmode sample-hold
attr recordingmode vector
attr source transmissionStateChanged
attr title "Radio transmission state"
vector 52 LoRaNetwork_moving.loRaNodes[8].LoRaNic.queue queueLength:vector ETV
attr autoWarmupFilter false
attr interpolationmode sample-hold
attr recordingmode vector
attr source "warmup(atomic(constant0(packetPushEnded) + count(packetPushStarted) - count(packetPulled) - count(packetRemoved) - count(packetDropped)))"
attr title "queue length"
attr unit pk
vector 53 LoRaNetwork_moving.loRaNodes[8].LoRaNic.queue queueBitLength:vector ETV
attr autoWarmupFilter false
attr interpolationmode sample-hold
attr recordingmode vector
attr source "warmup(atomic(constant0(packetPushEnded) + sum(packetLength(packetPushStarted)) - sum(packetLength(packetPulled)) - sum(packetLength(packetRemoved)) - sum(packetLength(packetDropped))))"
attr title "queue bit length"
attr unit b
vector 54 LoRaNetwork_moving.loRaGW_moving[0].udp packetSent:vector(packetBytes) ETV
attr interpolationmode none
attr recordingmode vector(packetBytes)
attr source packetSent
attr title "packets sent, packetBytes"
vector 55 LoRaNetwork_moving.loRaGW_moving[0].ipv4.arp arpRequestSent:vector(packetBytes) ETV
attr recordingmode vector(packetBytes)
attr source arpRequestSent
attr title "ARP request sent, packetBytes"
vector 56 LoRaNetwork_moving.loRaGW_moving[0].ethernet encapPk:vector(packetBytes) ETV
attr interpolationmode none
attr recordingmode vector(packetBytes)
attr source encapPk
attr title "packets encapsulated, packetBytes"
vector 57 LoRaNetwork_moving.loRaGW_moving[0].eth[0].queue incomingPacketLengths:vector ETV
attr interpolationmode none
attr recordingmode vector
attr source packetLength(packetPushStarted)
attr title "incoming packet lengths"
attr unit b
vector 58 LoRaNetwork_moving.loRaGW_moving[0].eth[0].queue incomingDataRate:vector ETV
attr interpolationmode linear
attr recordingmode vector
attr source throughput(packetPushStarted)
attr title "incoming datarate"
attr unit bps
vector 59 LoRaNetwork_moving.loRaGW_moving[0].eth[0].queue queueingTime:vector ETV
attr interpolationmode none
attr recordingmode vector
attr source queueingTime(packetPulled)
attr title "queueing times"
attr unit s
vector 60 LoRaNetwork_moving.loRaGW_moving[0].eth[0].queue outgoingPacketLengths:vector ETV
attr interpolationmode none
attr recordingmode vector
attr source packetLength(packetPulled)
attr title "outgoing packet lengths"
attr unit b
vector 61 LoRaNetwork_moving.loRaGW_moving[0].eth[0].queue outgoingDataRate:vector ETV
attr interpolationmode linear
attr recordingmode vector
attr source throughput(packetPulled)
attr title "outgoing datarate"
attr unit bps
vector 62 LoRaNetwork_moving.loRaGW_moving[0].eth[0].mac packetReceivedFromUpper:vector(packetBytes) ETV
attr interpolationmode none
attr recordingmode vector(packetBytes)
attr source packetReceivedFromUpper
attr title "packet bytes from higher layer, packetBytes"
vector 63 LoRaNetwork_moving.loRaGW_moving[0].eth[0].queue queueLength:vector ETV
attr autoWarmupFilter false
attr interpolationmode sample-hold
attr recordingmode vector
attr source "warmup(atomic(constant0(packetPushEnded) + count(packetPushStarted) - count(packetPulled) - count(packetRemoved) - count(packetDropped)))"
attr title "queue length"
attr unit pk
vector 64 LoRaNetwork_moving.loRaGW_moving[0].eth[0].queue queueBitLength:vector ETV
attr autoWarmupFilter false
attr interpolationmode sample-hold
attr recordingmode vector
attr source "warmup(atomic(constant0(packetPushEnded) + sum(packetLength(packetPushStarted)) - sum(packetLength(packetPulled)) - sum(packetLength(packetRemoved)) - sum(packetLength(packetDropped))))"
attr title "queue bit length"
attr unit b
vector 65 LoRaNetwork_moving.loRaGW_moving[0].eth[0].mac txPk:vector(packetBytes) ETV
attr interpolationmode none
attr recordingmode vector(packetBytes)
attr source packetSentToLower
attr title "packets transmitted, packetBytes"
vector 66 LoRaNetwork_moving.gwRouter[0].eth[0].mac rxPkOk:vector(packetBytes) ETV
attr interpolationmode none
attr recordingmode vector(packetBytes)
attr source rxPkOk
attr title "packets received OK, packetBytes"
vector 67 LoRaNetwork_moving.gwRouter[0].eth[0].mac passedUpPk:vector(packetBytes) ETV
attr interpolationmode none
attr recordingmode vector(packetBytes)
attr source packetSentToUpper
attr title "packets passed to higher layer, packetBytes"
vector 68 LoRaNetwork_moving.gwRouter[0].ethernet decapPk:vector(packetBytes) ETV
attr interpolationmode none
attr recordingmode vector(packetBytes)
attr source decapPk
attr title "packets decapsulated, packetBytes"
vector 69 LoRaNetwork_moving.gwRouter[0].ipv4.arp arpReplySent:vector(packetBytes) ETV
attr recordingmode vector(packetBytes)
attr source arpReplySent
attr title "ARP replies sent, packetBytes"
vector 70 LoRaNetwork_moving.gwRouter[0].ethernet encapPk:vector(packetBytes) ETV
attr interpolationmode none
attr recordingmode vector(packetBytes)
attr source encapPk
attr title "packets encapsulated, packetBytes"
vector 71 LoRaNetwork_moving.gwRouter[0].eth[0].queue incomingPacketLengths:vector ETV
attr interpolationmode none
attr recordingmode vector
attr source packetLength(packetPushStarted)
attr title "incoming packet lengths"
attr unit b
vector 72 LoRaNetwork_moving.gwRouter[0].eth[0].queue incomingDataRate:vector ETV
attr interpolationmode linear
attr recordingmode vector
attr source throughput(packetPushStarted)
attr title "incoming datarate"
attr unit bps
vector 73 LoRaNetwork_moving.gwRouter[0].eth[0].queue queueingTime:vector ETV
attr interpolationmode none
attr recordingmode vector
attr source queueingTime(packetPulled)
attr title "queueing times"
attr unit s
vector 74 LoRaNetwork_moving.gwRouter[0].eth[0].queue outgoingPacketLengths:vector ETV
attr interpolationmode none
attr recordingmode vector
attr source packetLength(packetPulled)
attr title "outgoing packet lengths"
attr unit b
vector 75 LoRaNetwork_moving.gwRouter[0].eth[0].queue outgoingDataRate:vector ETV
attr interpolationmode linear
attr recordingmode vector
attr source throughput(packetPulled)
attr title "outgoing datarate"
attr unit bps
vector 76 LoRaNetwork_moving.gwRouter[0].eth[0].mac packetReceivedFromUpper:vector(packetBytes) ETV
attr interpolationmode none
attr recordingmode vector(packetBytes)
attr source packetReceivedFromUpper
attr title "packet bytes from higher layer, packetBytes"
vector 77 LoRaNetwork_moving.gwRouter[0].eth[0].queue queueLength:vector ETV
attr autoWarmupFilter false
attr interpolationmode sample-hold
attr recordingmode vector
attr source "warmup(atomic(constant0(packetPushEnded) + count(packetPushStarted) - count(packetPulled) - count(packetRemoved) - count(packetDropped)))"
attr title "queue length"
attr unit pk
vector 78 LoRaNetwork_moving.gwRouter[0].eth[0].queue queueBitLength:vector ETV
attr autoWarmupFilter false
attr interpolationmode sample-hold
attr recordingmode vector
attr source "warmup(atomic(constant0(packetPushEnded) + sum(packetLength(packetPushStarted)) - sum(packetLength(packetPulled)) - sum(packetLength(packetRemoved)) - sum(packetLength(packetDropped))))"
attr title "queue bit length"
attr unit b
vector 79 LoRaNetwork_moving.gwRouter[0].eth[0].mac txPk:vector(packetBytes) ETV
attr interpolationmode none
attr recordingmode vector(packetBytes)
attr source packetSentToLower
attr title "packets transmitted, packetBytes"
vector 80 LoRaNetwork_moving.loRaGW_moving[0].eth[0].mac rxPkOk:vector(packetBytes) ETV
attr interpolationmode none
attr recordingmode vector(packetBytes)
attr source rxPkOk
attr title "packets received OK, packetBytes"
vector 81 LoRaNetwork_moving.loRaGW_moving[0].eth[0].mac passedUpPk:vector(packetBytes) ETV
attr interpolationmode none
attr recordingmode vector(packetBytes)
attr source packetSentToUpper
attr title "packets passed to higher layer, packetBytes"
vector 82 LoRaNetwork_moving.loRaGW_moving[0].ethernet decapPk:vector(packetBytes) ETV
attr interpolationmode none
attr recordingmode vector(packetBytes)
attr source decapPk
attr title "packets decapsulated, packetBytes"
vector 83 LoRaNetwork_moving.gwRouter[0].ppp[0].queue incomingPacketLengths:vector ETV
attr interpolationmode none
attr recordingmode vector
attr source packetLength(packetPushStarted)
attr title "incoming packet lengths"
attr unit b
vector 84 LoRaNetwork_moving.gwRouter[0].ppp[0].queue incomingDataRate:vector ETV
attr interpolationmode linear
attr recordingmode vector
attr source throughput(packetPushStarted)
attr title "incoming datarate"
attr unit bps
vector 85 LoRaNetwork_moving.gwRouter[0].ppp[0].queue queueingTime:vector ETV
attr interpolationmode none
attr recordingmode vector
attr source queueingTime(packetPulled)
attr title "queueing times"
attr unit s
vector 86 LoRaNetwork_moving.gwRouter[0].ppp[0].queue outgoingPacketLengths:vector ETV
attr interpolationmode none
attr recordingmode vector
attr source packetLength(packetPulled)
attr title "outgoing packet lengths"
attr unit b
vector 87 LoRaNetwork_moving.gwRouter[0].ppp[0].queue outgoingDataRate:vector ETV
attr interpolationmode linear
attr recordingmode vector
attr source throughput(packetPulled)
attr title "outgoing datarate"
attr unit bps
vector 88 LoRaNetwork_moving.gwRouter[0].ppp[0].ppp txPk:vector(packetBytes) ETV
attr interpolationmode none
attr recordingmode vector(packetBytes)
attr source packetSentToLower
attr title "packets transmitted, packetBytes"
vector 89 LoRaNetwork_moving.gwRouter[0].ppp[0].queue queueLength:vector ETV
attr autoWarmupFilter false
attr interpolationmode sample-hold
attr recordingmode vector
attr source "warmup(atomic(constant0(packetPushEnded) + count(packetPushStarted) - count(packetPulled) - count(packetRemoved) - count(packetDropped)))"
attr title "queue length"
attr unit pk
vector 90 LoRaNetwork_moving.gwRouter[0].ppp[0].queue queueBitLength:vector ETV
attr autoWarmupFilter false
attr interpolationmode sample-hold
attr recordingmode vector
attr source "warmup(atomic(constant0(packetPushEnded) + sum(packetLength(packetPushStarted)) - sum(packetLength(packetPulled)) - sum(packetLength(packetRemoved)) - sum(packetLength(packetDropped))))"
attr title "queue bit length"
attr unit b
vector 91 LoRaNetwork_moving.internetCloud.ppp[1].ppp rxPkOk:vector(packetBytes) ETV
attr interpolationmode none
attr recordingmode vector(packetBytes)
attr source rxPkOk
attr title "packets received OK, packetBytes"
vector 92 LoRaNetwork_moving.internetCloud.ppp[1].ppp passedUpPk:vector(packetBytes) ETV
attr interpolationmode none
attr recordingmode vector(packetBytes)
attr source packetSentToUpper
attr title "packets passed to higher layer, packetBytes"
vector 93 LoRaNetwork_moving.internetCloud.ppp[0].queue incomingPacketLengths:vector ETV
attr interpolationmode none
attr recordingmode vector
attr source packetLength(packetPushStarted)
attr title "incoming packet lengths"
attr unit b
vector 94 LoRaNetwork_moving.internetCloud.ppp[0].queue incomingDataRate:vector ETV
attr interpolationmode linear
attr recordingmode vector
attr source throughput(packetPushStarted)
attr title "incoming datarate"
attr unit bps
vector 95 LoRaNetwork_moving.internetCloud.ppp[0].queue queueingTime:vector ETV
attr interpolationmode none
attr recordingmode vector
attr source queueingTime(packetPulled)
attr title "queueing times"
attr unit s
vector 96 LoRaNetwork_moving.internetCloud.ppp[0].queue outgoingPacketLengths:vector ETV
attr interpolationmode none
attr recordingmode vector
attr source packetLength(packetPulled)
attr title "outgoing packet lengths"
attr unit b
vector 97 LoRaNetwork_moving.internetCloud.ppp[0].queue outgoingDataRate:vector ETV
attr interpolationmode linear
attr recordingmode vector
attr source throughput(packetPulled)
attr title "outgoing datarate"
attr unit bps
vector 98 LoRaNetwork_moving.internetCloud.ppp[0].ppp txPk:vector(packetBytes) ETV
attr interpolationmode none
attr recordingmode vector(packetBytes)
attr source packetSentToLower
attr title "packets transmitted, packetBytes"
vector 99 LoRaNetwork_moving.internetCloud.ppp[0].queue queueLength:vector ETV
attr autoWarmupFilter false
attr interpolationmode sample-hold
attr recordingmode vector
attr source "warmup(atomic(constant0(packetPushEnded) + count(packetPushStarted) - count(packetPulled) - count(packetRemoved) - count(packetDropped)))"
attr title "queue length"
attr unit pk
vector 100 LoRaNetwork_moving.internetCloud.ppp[0].queue queueBitLength:vector ETV
attr autoWarmupFilter false
attr interpolationmode sample-hold
attr recordingmode vector
attr source "warmup(atomic(constant0(packetPushEnded) + sum(packetLength(packetPushStarted)) - sum(packetLength(packetPulled)) - sum(packetLength(packetRemoved)) - sum(packetLength(packetDropped))))"
attr title "queue bit length"
attr unit b
vector 101 LoRaNetwork_moving.nsRouter.ppp[0].ppp rxPkOk:vector(packetBytes) ETV
attr interpolationmode none
attr recordingmode vector(packetBytes)
attr source rxPkOk
attr title "packets received OK, packetBytes"
vector 102 LoRaNetwork_moving.nsRouter.ppp[0].ppp passedUpPk:vector(packetBytes) ETV
attr interpolationmode none
attr recordingmode vector(packetBytes)
attr source packetSentToUpper
attr title "packets passed to higher layer, packetBytes"
vector 103 LoRaNetwork_moving.nsRouter.ipv4.arp arpRequestSent:vector(packetBytes) ETV
attr recordingmode vector(packetBytes)
attr source arpRequestSent
attr title "ARP request sent, packetBytes"
vector 104 LoRaNetwork_moving.nsRouter.ethernet encapPk:vector(packetBytes) ETV
attr interpolationmode none
attr recordingmode vector(packetBytes)
attr source encapPk
attr title "packets encapsulated, packetBytes"
vector 105 LoRaNetwork_moving.nsRouter.eth[0].queue incomingPacketLengths:vector ETV
attr interpolationmode none
attr recordingmode vector
attr source packetLength(packetPushStarted)
attr title "incoming packet lengths"
attr unit b
vector 106 LoRaNetwork_moving.nsRouter.eth[0].queue incomingDataRate:vector ETV
attr interpolationmode linear
attr recordingmode vector
attr source throughput(packetPushStarted)
attr title "incoming datarate"
attr unit bps
vector 107 LoRaNetwork_moving.nsRouter.eth[0].queue queueingTime:vector ETV
attr interpolationmode none
attr recordingmode vector
attr source queueingTime(packetPulled)
attr title "queueing times"
attr unit s
vector 108 LoRaNetwork_moving.nsRouter.eth[0].queue outgoingPacketLengths:vector ETV
attr interpolationmode none
attr recordingmode vector
attr source packetLength(packetPulled)
attr title "outgoing packet lengths"
attr unit b
vector 109 LoRaNetwork_moving.nsRouter.eth[0].queue outgoingDataRate:vector ETV
attr interpolationmode linear
attr recordingmode vector
attr source throughput(packetPulled)
attr title "outgoing datarate"
attr unit bps
vector 110 LoRaNetwork_moving.nsRouter.eth[0].mac packetReceivedFromUpper:vector(packetBytes) ETV
attr interpolationmode none
attr recordingmode vector(packetBytes)
attr source packetReceivedFromUpper
attr title "packet bytes from higher layer, packetBytes"
vector 111 LoRaNetwork_moving.nsRouter.eth[0].queue queueLength:vector ETV
attr autoWarmupFilter false
attr interpolationmode sample-hold
attr recordingmode vector
attr source "warmup(atomic(constant0(packetPushEnded) + count(packetPushStarted) - count(packetPulled) - count(packetRemoved) - count(packetDropped)))"
attr title "queue length"
attr unit pk
vector 112 LoRaNetwork_moving.nsRouter.eth[0].queue queueBitLength:vector ETV
attr autoWarmupFilter false
attr interpolationmode sample-hold
attr recordingmode vector
attr source "warmup(atomic(constant0(packetPushEnded) + sum(packetLength(packetPushStarted)) - sum(packetLength(packetPulled)) - sum(packetLength(packetRemoved)) - sum(packetLength(packetDropped))))"
attr title "queue bit length"
attr unit b
vector 113 LoRaNetwork_moving.nsRouter.eth[0].mac txPk:vector(packetBytes) ETV
attr interpolationmode none
attr recordingmode vector(packetBytes)
attr source packetSentToLower
attr title "packets transmitted, packetBytes"
vector 114 LoRaNetwork_moving.networkServer.eth[0].mac rxPkOk:vector(packetBytes) ETV
attr interpolationmode none
attr recordingmode vector(packetBytes)
attr source rxPkOk
attr title "packets received OK, packetBytes"
vector 115 LoRaNetwork_moving.networkServer.eth[0].mac passedUpPk:vector(packetBytes) ETV
attr interpolationmode none
attr recordingmode vector(packetBytes)
attr source packetSentToUpper
attr title "packets passed to higher layer, packetBytes"
vector 116 LoRaNetwork_moving.networkServer.ethernet decapPk:vector(packetBytes) ETV
attr interpolationmode none
attr recordingmode vector(packetBytes)
attr source decapPk
attr title "packets decapsulated, packetBytes"
vector 117 LoRaNetwork_moving.networkServer.ipv4.arp arpReplySent:vector(packetBytes) ETV
attr recordingmode vector(packetBytes)
attr source arpReplySent
attr title "ARP replies sent, packetBytes"
vector 118 LoRaNetwork_moving.networkServer.ethernet encapPk:vector(packetBytes) ETV
attr interpolationmode none
attr recordingmode vector(packetBytes)
attr source encapPk
attr title "packets encapsulated, packetBytes"
vector 119 LoRaNetwork_moving.networkServer.eth[0].queue incomingPacketLengths:vector ETV
attr interpolationmode none
attr recordingmode vector
attr source packetLength(packetPushStarted)
attr title "incoming packet lengths"
attr unit b
vector 120 LoRaNetwork_moving.networkServer.eth[0].queue incomingDataRate:vector ETV
attr interpolationmode linear
attr recordingmode vector
attr source throughput(packetPushStarted)
attr title "incoming datarate"
attr unit bps
vector 121 LoRaNetwork_moving.networkServer.eth[0].queue queueingTime:vector ETV
attr interpolationmode none
attr recordingmode vector
attr source queueingTime(packetPulled)
attr title "queueing times"
attr unit s
vector 122 LoRaNetwork_moving.networkServer.eth[0].queue outgoingPacketLengths:vector ETV
attr interpolationmode none
attr recordingmode vector
attr source packetLength(packetPulled)
attr title "outgoing packet lengths"
attr unit b
vector 123 LoRaNetwork_moving.networkServer.eth[0].queue outgoingDataRate:vector ETV
attr interpolationmode linear
attr recordingmode vector
attr source throughput(packetPulled)
attr title "outgoing datarate"
attr unit bps
vector 124 LoRaNetwork_moving.networkServer.eth[0].mac packetReceivedFromUpper:vector(packetBytes) ETV
attr interpolationmode none
attr recordingmode vector(packetBytes)
attr source packetReceivedFromUpper
attr title "packet bytes from higher layer, packetBytes"
vector 125 LoRaNetwork_moving.networkServer.eth[0].queue queueLength:vector ETV
attr autoWarmupFilter false
attr interpolationmode sample-hold
attr recordingmode vector
attr source "warmup(atomic(constant0(packetPushEnded) + count(packetPushStarted) - count(packetPulled) - count(packetRemoved) - count(packetDropped)))"
attr title "queue length"
attr unit pk
vector 126 LoRaNetwork_moving.networkServer.eth[0].queue queueBitLength:vector ETV
attr autoWarmupFilter false
attr interpolationmode sample-hold
attr recordingmode vector
attr source "warmup(atomic(constant0(packetPushEnded) + sum(packetLength(packetPushStarted)) - sum(packetLength(packetPulled)) - sum(packetLength(packetRemoved)) - sum(packetLength(packetDropped))))"
attr title "queue bit length"
attr unit b
vector 127 LoRaNetwork_moving.networkServer.eth[0].mac txPk:vector(packetBytes) ETV
attr interpolationmode none
attr recordingmode vector(packetBytes)
attr source packetSentToLower
attr title "packets transmitted, packetBytes"
vector 128 LoRaNetwork_moving.nsRouter.eth[0].mac rxPkOk:vector(packetBytes) ETV
attr interpolationmode none
attr recordingmode vector(packetBytes)
attr source rxPkOk
attr title "packets received OK, packetBytes"
vector 129 LoRaNetwork_moving.nsRouter.eth[0].mac passedUpPk:vector(packetBytes) ETV
attr interpolationmode none
attr recordingmode vector(packetBytes)
attr source packetSentToUpper
attr title "packets passed to higher layer, packetBytes"
vector 130 LoRaNetwork_moving.nsRouter.ethernet decapPk:vector(packetBytes) ETV
attr interpolationmode none
attr recordingmode vector(packetBytes)
attr source decapPk
attr title "packets decapsulated, packetBytes"
vector 131 LoRaNetwork_moving.networkServer.udp packetReceived:vector(packetBytes) ETV
attr interpolationmode none
attr recordingmode vector(packetBytes)
attr source packetReceived
attr title "packets received, packetBytes"
vector 132 LoRaNetwork_moving.networkServer.app[0] "Vector of SNIR per node" ETV
vector 133 LoRaNetwork_moving.networkServer.app[0] "Vector of RSSI per node" ETV
vector 134 LoRaNetwork_moving.networkServer.app[0] "received simTime" ETV
vector 135 LoRaNetwork_moving.loRaNodes[8].LoRaNic.radio receptionState:vector ETV
attr interpolationmode sample-hold
attr recordingmode vector
attr source receptionStateChanged
attr title "Radio reception state"
vector 136 LoRaNetwork_moving.networkServer.app[0] "Received Sequence number" ETV
vector 137 LoRaNetwork_moving.loRaNodes[6].app[0] "SF Vector" ETV
vector 138 LoRaNetwork_moving.loRaNodes[6].app[0] "TP Vector" ETV
vector 139 LoRaNetwork_moving.loRaNodes[6].LoRaNic.queue incomingPacketLengths:vector ETV
attr interpolationmode none
attr recordingmode vector
attr source packetLength(packetPushStarted)
attr title "incoming packet lengths"
attr unit b
vector 140 LoRaNetwork_moving.loRaNodes[6].LoRaNic.queue incomingDataRate:vector ETV
attr interpolationmode linear
attr recordingmode vector
attr source throughput(packetPushStarted)
attr title "incoming datarate"
attr unit bps
vector 141 LoRaNetwork_moving.loRaNodes[6].LoRaNic.queue queueingTime:vector ETV
attr interpolationmode none
attr recordingmode vector
attr source queueingTime(packetPulled)
attr title "queueing times"
attr unit s
vector 142 LoRaNetwork_moving.loRaNodes[6].LoRaNic.queue outgoingPacketLengths:vector ETV
attr interpolationmode none
attr recordingmode vector
attr source packetLength(packetPulled)
attr title "outgoing packet lengths"
attr unit b
vector 143 LoRaNetwork_moving.loRaNodes[6].LoRaNic.queue outgoingDataRate:vector ETV
attr interpolationmode linear
attr recordingmode vector
attr source throughput(packetPulled)
attr title "outgoing datarate"
attr unit bps
vector 144 LoRaNetwork_moving.loRaNodes[6].LoRaNic.radio.IdealEpEnergyStorage residualEnergyCapacity:vector ETV
attr interpolationmode linear
attr recordingmode vector
attr source residualEnergyCapacityChanged
attr title "Residual energy capacity"
vector 145 LoRaNetwork_moving.loRaNodes[6].LoRaNic.radio transmissionState:vector ETV
attr interpolationmode sample-hold
attr recordingmode vector
attr source transmissionStateChanged
attr title "Radio transmission state"
vector 146 LoRaNetwork_moving.loRaNodes[6].LoRaNic.queue queueLength:vector ETV
attr autoWarmupFilter false
attr interpolationmode sample-hold
attr recordingmode vector
attr source "warmup(atomic(constant0(packetPushEnded) + count(packetPushStarted) - count(packetPulled) - count(packetRemoved) - count(packetDropped)))"
attr title "queue length"
attr unit pk
vector 147 LoRaNetwork_moving.loRaNodes[6].LoRaNic.queue queueBitLength:vector ETV
attr autoWarmupFilter false
attr interpolationmode sample-hold
attr recordingmode vector
attr source "warmup(atomic(constant0(packetPushEnded) + sum(packetLength(packetPushStarted)) - sum(packetLength(packetPulled)) - sum(packetLength(packetRemoved)) - sum(packetLength(packetDropped))))"
attr title "queue bit length"
attr unit b
vector 148 LoRaNetwork_moving.networkServer.app[0] "Vector of SNIR per node" ETV
vector 149 LoRaNetwork_moving.networkServer.app[0] "Vector of RSSI per node" ETV
vector 150 LoRaNetwork_moving.networkServer.app[0] "received simTime" ETV
vector 151 LoRaNetwork_moving.loRaNodes[0].app[0] "SF Vector" ETV
vector 152 LoRaNetwork_moving.loRaNodes[0].app[0] "TP Vector" ETV
vector 153 LoRaNetwork_moving.loRaNodes[0].LoRaNic.queue incomingPacketLengths:vector ETV
attr interpolationmode none
attr recordingmode vector
attr source packetLength(packetPushStarted)
attr title "incoming packet lengths"
attr unit b
vector 154 LoRaNetwork_moving.loRaNodes[0].LoRaNic.queue incomingDataRate:vector ETV
attr interpolationmode linear
attr recordingmode vector
attr source throughput(packetPushStarted)
attr title "incoming datarate"
attr unit bps
vector 155 LoRaNetwork_moving.loRaNodes[0].LoRaNic.queue queueingTime:vector ETV
attr interpolationmode none
attr recordingmode vector
attr source queueingTime(packetPulled)
attr title "queueing times"
attr unit s
vector 156 LoRaNetwork_moving.loRaNodes[0].LoRaNic.queue outgoingPacketLengths:vector ETV
attr interpolationmode none
attr recordingmode vector
attr source packetLength(packetPulled)
attr title "outgoing packet lengths"
attr unit b
vector 157 LoRaNetwork_moving.loRaNodes[0].LoRaNic.queue outgoingDataRate:vector ETV
attr interpolationmode linear
attr recordingmode vector
attr source throughput(packetPulled)
attr title "outgoing datarate"
attr unit bps
vector 158 LoRaNetwork_moving.loRaNodes[0].LoRaNic.radio.IdealEpEnergyStorage residualEnergyCapacity:vector ETV
attr interpolationmode linear
attr recordingmode vector
attr source residualEnergyCapacityChanged
attr title "Residual energy capacity"
vector 159 LoRaNetwork_moving.loRaNodes[0].LoRaNic.radio transmissionState:vector ETV
attr interpolationmode sample-hold
attr recordingmode vector
attr source transmissionStateChanged
attr title "Radio transmission state"
vector 160 LoRaNetwork_moving.loRaNodes[0].LoRaNic.queue queueLength:vector ETV
attr autoWarmupFilter false
attr interpolationmode sample-hold
attr recordingmode vector
attr source "warmup(atomic(constant0(packetPushEnded) + count(packetPushStarted) - count(packetPulled) - count(packetRemoved) - count(packetDropped)))"
attr title "queue length"
attr unit pk
vector 161 LoRaNetwork_moving.loRaNodes[0].LoRaNic.queue queueBitLength:vector ETV
attr autoWarmupFilter false
attr interpolationmode sample-hold
attr recordingmode vector
attr source "warmup(atomic(constant0(packetPushEnded) + sum(packetLength(packetPushStarted)) - sum(packetLength(packetPulled)) - sum(packetLength(packetRemoved)) - sum(packetLength(packetDropped))))"
attr title "queue bit length"
attr unit b
vector 162 LoRaNetwork_moving.networkServer.app[0] "Vector of SNIR per node" ETV
vector 163 LoRaNetwork_moving.networkServer.app[0] "Vector of RSSI per node" ETV
vector 164 LoRaNetwork_moving.networkServer.app[0] "received simTime" ETV
vector 165 LoRaNetwork_moving.loRaNodes[6].LoRaNic.radio receptionState:vector ETV
attr interpolationmode sample-hold
attr recordingmode vector
attr source receptionStateChanged
attr title "Radio reception state"
vector 166 LoRaNetwork_moving.loRaNodes[0].LoRaNic.radio receptionState:vector ETV
attr interpolationmode sample-hold
attr recordingmode vector
attr source receptionStateChanged
attr title "Radio reception state"
vector 167 LoRaNetwork_moving.loRaNodes[1].app[0] "SF Vector" ETV
vector 168 LoRaNetwork_moving.loRaNodes[1].app[0] "TP Vector" ETV
vector 169 LoRaNetwork_moving.loRaNodes[1].LoRaNic.queue incomingPacketLengths:vector ETV
attr interpolationmode none
attr recordingmode vector
attr source packetLength(packetPushStarted)
attr title "incoming packet lengths"
attr unit b
vector 170 LoRaNetwork_moving.loRaNodes[1].LoRaNic.queue incomingDataRate:vector ETV
attr interpolationmode linear
attr recordingmode vector
attr source throughput(packetPushStarted)
attr title "incoming datarate"
attr unit bps
vector 171 LoRaNetwork_moving.loRaNodes[1].LoRaNic.queue queueingTime:vector ETV
attr interpolationmode none
attr recordingmode vector
attr source queueingTime(packetPulled)
attr title "queueing times"
attr unit s
vector 172 LoRaNetwork_moving.loRaNodes[1].LoRaNic.queue outgoingPacketLengths:vector ETV
attr interpolationmode none
attr recordingmode vector
attr source packetLength(packetPulled)
attr title "outgoing packet lengths"
attr unit b
vector 173 LoRaNetwork_moving.loRaNodes[1].LoRaNic.queue outgoingDataRate:vector ETV
attr interpolationmode linear
attr recordingmode vector
attr source throughput(packetPulled)
attr title "outgoing datarate"
attr unit bps
vector 174 LoRaNetwork_moving.loRaNodes[1].LoRaNic.radio.IdealEpEnergyStorage residualEnergyCapacity:vector ETV
attr interpolationmode linear
attr recordingmode vector
attr source residualEnergyCapacityChanged
attr title "Residual energy capacity"
vector 175 LoRaNetwork_moving.loRaNodes[1].LoRaNic.radio transmissionState:vector ETV
attr interpolationmode sample-hold
attr recordingmode vector
attr source transmissionStateChanged
attr title "Radio transmission state"
vector 176 LoRaNetwork_moving.loRaNodes[1].LoRaNic.queue queueLength:vector ETV
attr autoWarmupFilter false
attr interpolationmode sample-hold
attr recordingmode vector
attr source "warmup(atomic(constant0(packetPushEnded) + count(packetPushStarted) - count(packetPulled) - count(packetRemoved) - count(packetDropped)))"
attr title "queue length"
attr unit pk
vector 177 LoRaNetwork_moving.loRaNodes[1].LoRaNic.queue queueBitLength:vector ETV
attr autoWarmupFilter false
attr interpolationmode sample-hold
attr recordingmode vector
attr source "warmup(atomic(constant0(packetPushEnded) + sum(packetLength(packetPushStarted)) - sum(packetLength(packetPulled)) - sum(packetLength(packetRemoved)) - sum(packetLength(packetDropped))))"
attr title "queue bit length"
attr unit b
vector 178 LoRaNetwork_moving.networkServer.app[0] "Vector of SNIR per node" ETV
vector 179 LoRaNetwork_moving.networkServer.app[0] "Vector of RSSI per node" ETV
vector 180 LoRaNetwork_moving.networkServer.app[0] "received simTime" ETV
vector 181 LoRaNetwork_moving.networkServer.app[0] "Received Sequence number" ETV
vector 182 LoRaNetwork_moving.networkServer.app[0] "Received Sequence number" ETV
vector 183 LoRaNetwork_moving.loRaNodes[4].app[0] "SF Vector" ETV
vector 184 LoRaNetwork_moving.loRaNodes[4].app[0] "TP Vector" ETV
vector 185 LoRaNetwork_moving.loRaNodes[4].LoRaNic.queue incomingPacketLengths:vector ETV
attr interpolationmode none
attr recordingmode vector
attr source packetLength(packetPushStarted)
attr title "incoming packet lengths"
attr unit b
vector 186 LoRaNetwork_moving.loRaNodes[4].LoRaNic.queue incomingDataRate:vector ETV
attr interpolationmode linear
attr recordingmode vector
attr source throughput(packetPushStarted)
attr title "incoming datarate"
attr unit bps
vector 187 LoRaNetwork_moving.loRaNodes[4].LoRaNic.queue queueingTime:vector ETV
attr interpolationmode none
attr recordingmode vector
attr source queueingTime(packetPulled)
attr title "queueing times"
attr unit s
vector 188 LoRaNetwork_moving.loRaNodes[4].LoRaNic.queue outgoingPacketLengths:vector ETV
attr interpolationmode none
attr recordingmode vector
attr source packetLength(packetPulled)
attr title "outgoing packet lengths"
attr unit b
vector 189 LoRaNetwork_moving.loRaNodes[4].LoRaNic.queue outgoingDataRate:vector ETV
attr interpolationmode linear
attr recordingmode vector
attr source throughput(packetPulled)
attr title "outgoing datarate"
attr unit bps
vector 190 LoRaNetwork_moving.loRaNodes[4].LoRaNic.radio.IdealEpEnergyStorage residualEnergyCapacity:vector ETV
attr interpolationmode linear
attr recordingmode vector
attr source residualEnergyCapacityChanged
attr title "Residual energy capacity"
vector 191 LoRaNetwork_moving.loRaNodes[4].LoRaNic.radio transmissionState:vector ETV
attr interpolationmode sample-hold
attr recordingmode vector
attr source transmissionStateChanged
attr title "Radio transmission state"
vector 192 LoRaNetwork_moving.loRaNodes[4].LoRaNic.queue queueLength:vector ETV
attr autoWarmupFilter false
attr interpolationmode sample-hold
attr recordingmode vector
attr source "warmup(atomic(constant0(packetPushEnded) + count(packetPushStarted) - count(packetPulled) - count(packetRemoved) - count(packetDropped)))"
attr title "queue length"
attr unit pk
vector 193 LoRaNetwork_moving.loRaNodes[4].LoRaNic.queue queueBitLength:vector ETV
attr autoWarmupFilter false
attr interpolationmode sample-hold
attr recordingmode vector
attr source "warmup(atomic(constant0(packetPushEnded) + sum(packetLength(packetPushStarted)) - sum(packetLength(packetPulled)) - sum(packetLength(packetRemoved)) - sum(packetLength(packetDropped))))"
attr title "queue bit length"
attr unit b
vector 194 LoRaNetwork_moving.networkServer.app[0] "Vector of SNIR per node" ETV
vector 195 LoRaNetwork_moving.networkServer.app[0] "Vector of RSSI per node" ETV
vector 196 LoRaNetwork_moving.networkServer.app[0] "received simTime" ETV
vector 197 LoRaNetwork_moving.loRaNodes[9].app[0] "SF Vector" ETV
vector 198 LoRaNetwork_moving.loRaNodes[9].app[0] "TP Vector" ETV
vector 199 LoRaNetwork_moving.loRaNodes[9].LoRaNic.queue incomingPacketLengths:vector ETV
attr interpolationmode none
attr recordingmode vector
attr source packetLength(packetPushStarted)
attr title "incoming packet lengths"
attr unit b
vector 200 LoRaNetwork_moving.loRaNodes[9].LoRaNic.queue incomingDataRate:vector ETV
attr interpolationmode linear
attr recordingmode vector
attr source throughput(packetPushStarted)
attr title "incoming datarate"
attr unit bps
vector 201 LoRaNetwork_moving.loRaNodes[9].LoRaNic.queue queueingTime:vector ETV
attr interpolationmode none
attr recordingmode vector
attr source queueingTime(packetPulled)
attr title "queueing times"
attr unit s
vector 202 LoRaNetwork_moving.loRaNodes[9].LoRaNic.queue outgoingPacketLengths:vector ETV
attr interpolationmode none
attr recordingmode vector
attr source packetLength(packetPulled)
attr title "outgoing packet lengths"
attr unit b
vector 203 LoRaNetwork_moving.loRaNodes[9].LoRaNic.queue outgoingDataRate:vector ETV
attr interpolationmode linear
attr recordingmode vector
attr source throughput(packetPulled)
attr title "outgoing datarate"
attr unit bps
vector 204 LoRaNetwork_moving.loRaNodes[9].LoRaNic.radio.IdealEpEnergyStorage residualEnergyCapacity:vector ETV
attr interpolationmode linear
attr recordingmode vector
attr source residualEnergyCapacityChanged
attr title "Residual energy capacity"
vector 205 LoRaNetwork_moving.loRaNodes[9].LoRaNic.radio transmissionState:vector ETV
attr interpolationmode sample-hold
attr recordingmode vector
attr source transmissionStateChanged
attr title "Radio transmission state"
vector 206 LoRaNetwork_moving.loRaNodes[9].LoRaNic.queue queueLength:vector ETV
attr autoWarmupFilter false
attr interpolationmode sample-hold
attr recordingmode vector
attr source "warmup(atomic(constant0(packetPushEnded) + count(packetPushStarted) - count(packetPulled) - count(packetRemoved) - count(packetDropped)))"
attr title "queue length"
attr unit pk
vector 207 LoRaNetwork_moving.loRaNodes[9].LoRaNic.queue queueBitLength:vector ETV
attr autoWarmupFilter false
attr interpolationmode sample-hold
attr recordingmode vector
attr source "warmup(atomic(constant0(packetPushEnded) + sum(packetLength(packetPushStarted)) - sum(packetLength(packetPulled)) - sum(packetLength(packetRemoved)) - sum(packetLength(packetDropped))))"
attr title "queue bit length"
attr unit b
vector 208 LoRaNetwork_moving.networkServer.app[0] "Vector of SNIR per node" ETV
vector 209 LoRaNetwork_moving.networkServer.app[0] "Vector of RSSI per node" ETV
vector 210 LoRaNetwork_moving.networkServer.app[0] "received simTime" ETV
vector 211 LoRaNetwork_moving.loRaNodes[1].LoRaNic.radio receptionState:vector ETV
attr interpolationmode sample-hold
attr recordingmode vector
attr source receptionStateChanged
attr title "Radio reception state"
vector 212 LoRaNetwork_moving.networkServer.app[0] "Received Sequence number" ETV
vector 213 LoRaNetwork_moving.loRaNodes[4].LoRaNic.radio receptionState:vector ETV
attr interpolationmode sample-hold
attr recordingmode vector
attr source receptionStateChanged
attr title "Radio reception state"
vector 214 LoRaNetwork_moving.networkServer.app[0] "Received Sequence number" ETV
vector 215 LoRaNetwork_moving.loRaNodes[9].LoRaNic.radio receptionState:vector ETV
attr interpolationmode sample-hold
attr recordingmode vector
attr source receptionStateChanged
attr title "Radio reception state"
vector 216 LoRaNetwork_moving.networkServer.app[0] "Received Sequence number" ETV
vector 217 LoRaNetwork_moving.loRaNodes[2].app[0] "SF Vector" ETV
vector 218 LoRaNetwork_moving.loRaNodes[2].app[0] "TP Vector" ETV
vector 219 LoRaNetwork_moving.loRaNodes[2].LoRaNic.queue incomingPacketLengths:vector ETV
attr interpolationmode none
attr recordingmode vector
attr source packetLength(packetPushStarted)
attr title "incoming packet lengths"
attr unit b
vector 220 LoRaNetwork_moving.loRaNodes[2].LoRaNic.queue incomingDataRate:vector ETV
attr interpolationmode linear
attr recordingmode vector
attr source throughput(packetPushStarted)
attr title "incoming datarate"
attr unit bps
vector 221 LoRaNetwork_moving.loRaNodes[2].LoRaNic.queue queueingTime:vector ETV
attr interpolationmode none
attr recordingmode vector
attr source queueingTime(packetPulled)
attr title "queueing times"
attr unit s
vector 222 LoRaNetwork_moving.loRaNodes[2].LoRaNic.queue outgoingPacketLengths:vector ETV
attr interpolationmode none
attr recordingmode vector
attr source packetLength(packetPulled)
attr title "outgoing packet lengths"
attr unit b
vector 223 LoRaNetwork_moving.loRaNodes[2].LoRaNic.queue outgoingDataRate:vector ETV
attr interpolationmode linear
attr recordingmode vector
attr source throughput(packetPulled)
attr title "outgoing datarate"
attr unit bps
vector 224 LoRaNetwork_moving.loRaNodes[2].LoRaNic.radio.IdealEpEnergyStorage residualEnergyCapacity:vector ETV
attr interpolationmode linear
attr recordingmode vector
attr source residualEnergyCapacityChanged
attr title "Residual energy capacity"
vector 225 LoRaNetwork_moving.loRaNodes[2].LoRaNic.radio transmissionState:vector ETV
attr interpolationmode sample-hold
attr recordingmode vector
attr source transmissionStateChanged
attr title "Radio transmission state"
vector 226 LoRaNetwork_moving.loRaNodes[2].LoRaNic.queue queueLength:vector ETV
attr autoWarmupFilter false
attr interpolationmode sample-hold
attr recordingmode vector
attr source "warmup(atomic(constant0(packetPushEnded) + count(packetPushStarted) - count(packetPulled) - count(packetRemoved) - count(packetDropped)))"
attr title "queue length"
attr unit pk
vector 227 LoRaNetwork_moving.loRaNodes[2].LoRaNic.queue queueBitLength:vector ETV
attr autoWarmupFilter false
attr interpolationmode sample-hold
attr recordingmode vector
attr source "warmup(atomic(constant0(packetPushEnded) + sum(packetLength(packetPushStarted)) - sum(packetLength(packetPulled)) - sum(packetLength(packetRemoved)) - sum(packetLength(packetDropped))))"
attr title "queue bit length"
attr unit b
vector 228 LoRaNetwork_moving.networkServer.app[0] "Vector of SNIR per node" ETV
vector 229 LoRaNetwork_moving.networkServer.app[0] "Vector of RSSI per node" ETV
vector 230 LoRaNetwork_moving.networkServer.app[0] "received simTime" ETV
vector 231 LoRaNetwork_moving.loRaNodes[2].LoRaNic.radio receptionState:vector ETV
attr interpolationmode sample-hold
attr recordingmode vector
attr source receptionStateChanged
attr title "Radio reception state"
vector 232 LoRaNetwork_moving.networkServer.app[0] "Received Sequence number" ETV
vector 233 LoRaNetwork_moving.loRaNodes[3].app[0] "SF Vector" ETV
vector 234 LoRaNetwork_moving.loRaNodes[3].app[0] "TP Vector" ETV
vector 235 LoRaNetwork_moving.loRaNodes[3].LoRaNic.queue incomingPacketLengths:vector ETV
attr interpolationmode none
attr recordingmode vector
attr source packetLength(packetPushStarted)
attr title "incoming packet lengths"
attr unit b
vector 236 LoRaNetwork_moving.loRaNodes[3].LoRaNic.queue incomingDataRate:vector ETV
attr interpolationmode linear
attr recordingmode vector
attr source throughput(packetPushStarted)
attr title "incoming datarate"
attr unit bps
vector 237 LoRaNetwork_moving.loRaNodes[3].LoRaNic.queue queueingTime:vector ETV
attr interpolationmode none
attr recordingmode vector
attr source queueingTime(packetPulled)
attr title "queueing times"
attr unit s
vector 238 LoRaNetwork_moving.loRaNodes[3].LoRaNic.queue outgoingPacketLengths:vector ETV
attr interpolationmode none
attr recordingmode vector
attr source packetLength(packetPulled)
attr title "outgoing packet lengths"
attr unit b
vector 239 LoRaNetwork_moving.loRaNodes[3].LoRaNic.queue outgoingDataRate:vector ETV
attr interpolationmode linear
attr recordingmode vector
attr source throughput(packetPulled)
attr title "outgoing datarate"
attr unit bps
vector 240 LoRaNetwork_moving.loRaNodes[3].LoRaNic.radio.IdealEpEnergyStorage residualEnergyCapacity:vector ETV
attr interpolationmode linear
attr recordingmode vector
attr source residualEnergyCapacityChanged
attr title "Residual energy capacity"
vector 241 LoRaNetwork_moving.loRaNodes[3].LoRaNic.radio transmissionState:vector ETV
attr interpolationmode sample-hold
attr recordingmode vector
attr source transmissionStateChanged
attr title "Radio transmission state"
vector 242 LoRaNetwork_moving.loRaNodes[3].LoRaNic.queue queueLength:vector ETV
attr autoWarmupFilter false
attr interpolationmode sample-hold
attr recordingmode vector
attr source "warmup(atomic(constant0(packetPushEnded) + count(packetPushStarted) - count(packetPulled) - count(packetRemoved) - count(packetDropped)))"
attr title "queue length"
attr unit pk
vector 243 LoRaNetwork_moving.loRaNodes[3].LoRaNic.queue queueBitLength:vector ETV
attr autoWarmupFilter false
attr interpolationmode sample-hold
attr recordingmode vector
attr source "warmup(atomic(constant0(packetPushEnded) + sum(packetLength(packetPushStarted)) - sum(packetLength(packetPulled)) - sum(packetLength(packetRemoved)) - sum(packetLength(packetDropped))))"
attr title "queue bit length"
attr unit b
vector 244 LoRaNetwork_moving.networkServer.app[0] "Vector of SNIR per node" ETV
vector 245 LoRaNetwork_moving.networkServer.app[0] "Vector of RSSI per node" ETV
vector 246 LoRaNetwork_moving.networkServer.app[0] "received simTime" ETV
vector 247 LoRaNetwork_moving.loRaNodes[7].app[0] "SF Vector" ETV
vector 248 LoRaNetwork_moving.loRaNodes[7].app[0] "TP Vector" ETV
vector 249 LoRaNetwork_moving.loRaNodes[7].LoRaNic.queue incomingPacketLengths:vector ETV
attr interpolationmode none
attr recordingmode vector
attr source packetLength(packetPushStarted)
attr title "incoming packet lengths"
attr unit b
vector 250 LoRaNetwork_moving.loRaNodes[7].LoRaNic.queue incomingDataRate:vector ETV
attr interpolationmode linear
attr recordingmode vector
attr source throughput(packetPushStarted)
attr title "incoming datarate"
attr unit bps
vector 251 LoRaNetwork_moving.loRaNodes[7].LoRaNic.queue queueingTime:vector ETV
attr interpolationmode none
attr recordingmode vector
attr source queueingTime(packetPulled)
attr title "queueing times"
attr unit s
vector 252 LoRaNetwork_moving.loRaNodes[7].LoRaNic.queue outgoingPacketLengths:vector ETV
attr interpolationmode none
attr recordingmode vector
attr source packetLength(packetPulled)
attr title "outgoing packet lengths"
attr unit b
vector 253 LoRaNetwork_moving.loRaNodes[7].LoRaNic.queue outgoingDataRate:vector ETV
attr interpolationmode linear
attr recordingmode vector
attr source throughput(packetPulled)
attr title "outgoing datarate"
attr unit bps
vector 254 LoRaNetwork_moving.loRaNodes[7].LoRaNic.radio.IdealEpEnergyStorage residualEnergyCapacity:vector ETV
attr interpolationmode linear
attr recordingmode vector
attr source residualEnergyCapacityChanged
attr title "Residual energy capacity"
vector 255 LoRaNetwork_moving.loRaNodes[7].LoRaNic.radio transmissionState:vector ETV
attr interpolationmode sample-hold
attr recordingmode vector
attr source transmissionStateChanged
attr title "Radio transmission state"
vector 256 LoRaNetwork_moving.loRaNodes[7].LoRaNic.queue queueLength:vector ETV
attr autoWarmupFilter false
attr interpolationmode sample-hold
attr recordingmode vector
attr source "warmup(atomic(constant0(packetPushEnded) + count(packetPushStarted) - count(packetPulled) - count(packetRemoved) - count(packetDropped)))"
attr title "queue length"
attr unit pk
vector 257 LoRaNetwork_moving.loRaNodes[7].LoRaNic.queue queueBitLength:vector ETV
attr autoWarmupFilter false
attr interpolationmode sample-hold
attr recordingmode vector
attr source "warmup(atomic(constant0(packetPushEnded) + sum(packetLength(packetPushStarted)) - sum(packetLength(packetPulled)) - sum(packetLength(packetRemoved)) - sum(packetLength(packetDropped))))"
attr title "queue bit length"
attr unit b
vector 258 LoRaNetwork_moving.networkServer.app[0] "Vector of SNIR per node" ETV
vector 259 LoRaNetwork_moving.networkServer.app[0] "Vector of RSSI per node" ETV
vector 260 LoRaNetwork_moving.networkServer.app[0] "received simTime" ETV
vector 261 LoRaNetwork_moving.loRaNodes[5].app[0] "SF Vector" ETV
vector 262 LoRaNetwork_moving.loRaNodes[5].app[0] "TP Vector" ETV
vector 263 LoRaNetwork_moving.loRaNodes[5].LoRaNic.queue incomingPacketLengths:vector ETV
attr interpolationmode none
attr recordingmode vector
attr source packetLength(packetPushStarted)
attr title "incoming packet lengths"
attr unit b
vector 264 LoRaNetwork_moving.loRaNodes[5].LoRaNic.queue incomingDataRate:vector ETV
attr interpolationmode linear
attr recordingmode vector
attr source throughput(packetPushStarted)
attr title "incoming datarate"
attr unit bps
vector 265 LoRaNetwork_moving.loRaNodes[5].LoRaNic.queue queueingTime:vector ETV
attr interpolationmode none
attr recordingmode vector
attr source queueingTime(packetPulled)
attr title "queueing times"
attr unit s
vector 266 LoRaNetwork_moving.loRaNodes[5].LoRaNic.queue outgoingPacketLengths:vector ETV
attr interpolationmode none
attr recordingmode vector
attr source packetLength(packetPulled)
attr title "outgoing packet lengths"
attr unit b
vector 267 LoRaNetwork_moving.loRaNodes[5].LoRaNic.queue outgoingDataRate:vector ETV
attr interpolationmode linear
attr recordingmode vector
attr source throughput(packetPulled)
attr title "outgoing datarate"
attr unit bps
vector 268 LoRaNetwork_moving.loRaNodes[5].LoRaNic.radio.IdealEpEnergyStorage residualEnergyCapacity:vector ETV
attr interpolationmode linear
attr recordingmode vector
attr source residualEnergyCapacityChanged
attr title "Residual energy capacity"
vector 269 LoRaNetwork_moving.loRaNodes[5].LoRaNic.radio transmissionState:vector ETV
attr interpolationmode sample-hold
attr recordingmode vector
attr source transmissionStateChanged
attr title "Radio transmission state"
vector 270 LoRaNetwork_moving.loRaNodes[5].LoRaNic.queue queueLength:vector ETV
attr autoWarmupFilter false
attr interpolationmode sample-hold
attr recordingmode vector
attr source "warmup(atomic(constant0(packetPushEnded) + count(packetPushStarted) - count(packetPulled) - count(packetRemoved) - count(packetDropped)))"
attr title "queue length"
attr unit pk
vector 271 LoRaNetwork_moving.loRaNodes[5].LoRaNic.queue queueBitLength:vector ETV
attr autoWarmupFilter false
attr interpolationmode sample-hold
attr recordingmode vector
attr source "warmup(atomic(constant0(packetPushEnded) + sum(packetLength(packetPushStarted)) - sum(packetLength(packetPulled)) - sum(packetLength(packetRemoved)) - sum(packetLength(packetDropped))))"
attr title "queue bit length"
attr unit b
vector 272 LoRaNetwork_moving.networkServer.app[0] "Vector of SNIR per node" ETV
vector 273 LoRaNetwork_moving.networkServer.app[0] "Vector of RSSI per node" ETV
vector 274 LoRaNetwork_moving.networkServer.app[0] "received simTime" ETV
vector 275 LoRaNetwork_moving.loRaNodes[3].LoRaNic.radio receptionState:vector ETV
attr interpolationmode sample-hold
attr recordingmode vector
attr source receptionStateChanged
attr title "Radio reception state"
vector 276 LoRaNetwork_moving.loRaNodes[7].LoRaNic.radio receptionState:vector ETV
attr interpolationmode sample-hold
attr recordingmode vector
attr source receptionStateChanged
attr title "Radio reception state"
vector 277 LoRaNetwork_moving.networkServer.app[0] "Received Sequence number" ETV
vector 278 LoRaNetwork_moving.networkServer.app[0] "Received Sequence number" ETV
vector 279 LoRaNetwork_moving.loRaNodes[5].LoRaNic.radio receptionState:vector ETV
attr interpolationmode sample-hold
attr recordingmode vector
attr source receptionStateChanged
attr title "Radio reception state"
vector 280 LoRaNetwork_moving.networkServer.app[0] "Received Sequence number" ETV
0	64575 8 0 0 0 0 1 0 0 0 0
1	64583 8 0 0 0 0 1 0 0 0 0
2	64591 8 0 0 0 0 1 0 0 0 0
3	64599 30652 0 78846 0 1110.87383788697 1105 0 1104 609960 449133880
4	95251 8 0 0 0 0 1 0 0 0 0
5	95259 8 0 0 0 0 1 0 0 0 0
6	95267 56889 0 78837 0 1110.87383713897 2209 0 1 1104 1104
7	152156 8 0 0 0 0 1 0 0 0 0
8	152164 56942 0 78919 0 1112.58732318669 2211 0 1 1105 1105
9	209106 8 0 0 0 0 1 0 0 0 0
10	209114 100567 0 78918 0 1112.58732291332 3391 0 0.1452 108.87162 11.3081300442
11	309681 103793 0 78883 0 1112.56780118176 3493 0 0.1452 115.56336 12.2290457256
12	413474 125633 0 78907 0 1112.5873220482 4235 0 0.1452 137.60208 14.298625756801
13	539107 106078 0 78735 0 1110.61294944523 3556 0 0.1452 117.24504 12.2993114904
14	645185 90491 0 78909 0 1112.58732207446 3068 0 0.1452 98.20371 10.1613260331
15	735676 104474 0 78364 0 1106.63246975565 3516 0 0.1452 114.92646 12.0278714886
16	840150 101343 0 78893 0 1112.58732046619 3420 0 0.1452 116.05506 12.4091369226
17	941493 94876 0 77656 0 1097.59774700667 3188 0 0.1452 107.86347 11.5059517947
18	1036369 95042 0 78872 0 1112.14603334675 3201 0 0.1452 105.27957 11.0945373957
19	1131411 97770 0 78870 0 1112.10540592045 3292 0 0.1452 108.07599 11.3484026799
20	1229181 28416 0 78918 0 1112.58732291332 1063 0 3 1698 3186
21	1257597 100558 0 78918 0 1112.58732291332 3390 0 0.1452 108.87162 11.3081300442
22	1358155 29627 0 78883 0 1112.56780118176 1106 0 3 1771 3337
23	1387782 103784 0 78883 0 1112.56780118176 3492 0 0.1452 115.56336 12.2290457256
24	1491566 35386 0 78907 0 1112.5873220482 1325 0 3 2116 3966
25	1526952 125624 0 78907 0 1112.5873220482 4234 0 0.1452 137.60208 14.298625756801
26	1652576 30068 0 78735 0 1110.61294944523 1119 0 3 1789 3361
27	1682644 106069 0 78735 0 1110.61294944523 3555 0 0.1452 117.24504 12.2993114904
28	1788713 25526 0 78909 0 1112.58732207446 961 0 3 1534 2876
29	1814239 90482 0 78909 0 1112.58732207446 3067 0 0.1452 98.20371 10.1613260331
30	1904721 29639 0 78364 0 1106.63246975565 1107 0 3 1770 3326
31	1934360 104465 0 78364 0 1106.63246975565 3515 0 0.1452 114.92646 12.0278714886
32	2038825 29005 0 78893 0 1112.58732046619 1087 0 3 1743 3291
33	2067830 101334 0 78893 0 1112.58732046619 3419 0 0.1452 116.05506 12.4091369226
34	2169164 27206 0 77656 0 1097.59774700667 1015 0 3 1627 3071
35	2196370 94867 0 77656 0 1097.59774700667 3187 0 0.1452 107.86347 11.5059517947
36	2291237 27135 0 78872 0 1112.14603334675 1014 0 3 1623 3057
37	2318372 95033 0 78872 0 1112.14603334675 3200 0 0.1452 105.27957 11.0945373957
38	2413405 27798 0 78870 0 1112.10540592045 1039 0 3 1662 3126
39	2441203 97761 0 78870 0 1112.10540592045 3291 0 0.1452 108.07599 11.3484026799
40	2538964 27 0 0 0 0 3 0 4 4 16
41	2538991 9 0 0 0 0 1 1 1 1 1
42	2539000 9 0 0 0 0 1 1 1 1 1
43	2539009 2840 58 78669 5.5104848667 1110.12651334675 106 7 7 742 5194
44	2541849 2946 58 78669 5.5104848667 1110.12651334675 106 14 14 1484 20776
45	2544795 2946 59 78670 5.5104848667 1110.12651334675 106 80 80 8480 678400
46	2547741 185031 59 78670 0.1 1110.1 11101 0 800 84000 67200000
47	2732772 3341 59 78670 5.5104848667 1110.12651334675 106 0 12.23939815428 158.09473298102 946.27442977396
48	2736113 2944 59 78670 5.5104848667 1110.12651334675 106 80 80 8480 678400
49	2739057 185059 59 78670 0.1 1110.1 11101 0 800 84000 67200000
50	2924116 39598 59 78872 5.5104848667 1112.14603334675 951 -12.196457576762 0 -6150.6657632986 51891.470137404
51	2963714 11356 59 78682 5.5104848667 1110.14603334675 424 0 2 424 636
52	2975070 3967 59 78670 5.5104848667 1110.12651334675 148 0 3 76 118
53	2979037 4041 59 78670 5.5104848667 1110.12651334675 148 0 240 6080 755200
54	2983078 30676 80 78902 5.5300067719 1112.58732199269 1105 35 35 38675 1353625
55	3013754 272 81 77186 5.5300067719 1091.95466742768 10 28 28 280 7840
56	3014026 30948 82 78904 5.5300067719 1112.58732199269 1115 28 55 61055 3350465
57	3044974 32064 83 78905 5.5300067719 1112.58732199269 1115 368 584 649000 378221120
58	3077038 188330 83 78905 0.1 1112.5 11125 0 17520 6484160 44970739200
59	3265368 29834 83 78905 5.5300067719 1112.58732199269 1115 0 0 0 0
60	3295202 32064 83 78905 5.5300067719 1112.58732199269 1115 368 584 649000 378221120
61	3327266 188330 83 78905 0.1 1112.5 11125 0 17520 6484160 44970739200
62	3515596 30949 83 78905 5.5300067719 1112.58732199269 1115 46 73 81125 5909705
63	3546545 29834 83 78905 5.5300067719 1112.58732199269 1115 0 0 0 0
64	3576379 29834 83 78905 5.5300067719 1112.58732199269 1115 0 0 0 0
65	3606213 30949 88 78911 5.5300073479 1112.58732264069 1115 64 73 81305 5929505
66	3637162 30949 89 78912 5.5300073979 1112.58732269069 1115 64 73 81305 5929505
67	3668111 30949 89 78912 5.5300073979 1112.58732269069 1115 64 73 81305 5929505
68	3699060 30949 90 78913 5.5300073979 1112.58732269069 1115 46 55 61235 3363785
69	3730009 272 91 77195 5.5300073979 1091.95466805368 10 28 28 280 7840
70	3730281 272 92 77196 5.5300073979 1091.95466805368 10 28 28 280 7840
71	3730553 282 93 77197 5.5300073979 1091.95466805368 10 368 368 3680 1354240
72	3730835 181910 93 77197 0.1 1091.9 10919 0 3680 33120 121881600
73	3912745 262 93 77197 5.5300073979 1091.95466805368 10 0 0 0 0
74	3913007 282 93 77197 5.5300073979 1091.95466805368 10 368 368 3680 1354240
75	3913289 181910 93 77197 0.1 1091.9 10919 0 3680 33120 121881600
76	4095199 272 93 77197 5.5300073979 1091.95466805368 10 46 46 460 21160
77	4095471 262 93 77197 5.5300073979 1091.95466805368 10 0 0 0 0
78	4095733 262 93 77197 5.5300073979 1091.95466805368 10 0 0 0 0
79	4095995 272 95 77201 5.5300079739 1091.95466862968 10 64 64 640 40960
80	4096267 272 96 77202 5.5300080239 1091.95466867968 10 64 64 640 40960
81	4096539 272 96 77202 5.5300080239 1091.95466867968 10 64 64 640 40960
82	4096811 272 97 77203 5.5300080239 1091.95466867968 10 46 46 460 21160
83	4097083 31782 106 78915 5.5300087219 1112.58732269069 1105 440 440 486200 213928000
84	4128865 188314 106 78915 0.1 1112.5 11125 0 13200 4857600 25206720000
85	4317179 29572 106 78915 5.5300087219 1112.58732269069 1105 0 0 0 0
86	4346751 31782 106 78915 5.5300087219 1112.58732269069 1105 440 440 486200 213928000
87	4378533 188314 106 78915 0.1 1112.5 11125 0 13200 4857600 25206720000
88	4566847 30677 106 78915 5.5300087219 1112.58732269069 1105 62 62 68510 4247620
89	4597524 29572 106 78915 5.5300087219 1112.58732269069 1105 0 0 0 0
90	4627096 29572 106 78915 5.5300087219 1112.58732269069 1105 0 0 0 0
91	4656668 30677 109 78920 5.5300092679 1112.58732323669 1105 62 62 68510 4247620
92	4687345 30677 109 78920 5.5300092679 1112.58732323669 1105 55 55 60775 3342625
93	4718022 31782 112 78923 5.5400097079 1112.59732367669 1105 440 440 486200 213928000
94	4749804 188338 112 78923 0.1 1112.5 11125 0 13200 4857600 24896960000
95	4938142 29572 112 78923 5.5400097079 1112.59732367669 1105 0 0 0 0
96	4967714 31782 112 78923 5.5400097079 1112.59732367669 1105 440 440 486200 213928000
97	4999496 188338 112 78923 0.1 1112.5 11125 0 13200 4857600 24896960000
98	5187834 30648 112 78836 5.5400097079 1110.87383664297 1104 62 62 68448 4243776
99	5218482 29544 112 78836 5.5400097079 1110.87383664297 1104 0 0 0 0
100	5248026 30648 112 78836 5.5400097079 1110.87383664297 1104 0 0 0 0
101	5278674 31753 114 78838 5.5400102539 1110.87383718897 1104 62 62 68448 4243776
102	5310427 31753 114 78838 5.5400102539 1110.87383718897 1104 55 55 60720 3339600
103	5342180 283 115 77221 5.5400102539 1091.96467090968 10 28 28 280 7840
104	5342463 32036 116 78840 5.5400102539 1110.87383718897 1114 28 55 61000 3347440
105	5374499 33150 117 78841 5.5400102539 1110.87383718897 1114 368 584 648416 377880064
106	5407649 199219 117 78799 0.1 1110.8 11108 0 17520 6472480 44288627200
107	5606868 30922 117 78841 5.5400102539 1110.87383718897 1114 0 0 0 0
108	5637790 33150 117 78841 5.5400102539 1110.87383718897 1114 368 584 648416 377880064
109	5670940 199219 117 78799 0.1 1110.8 11108 0 17520 6472480 44288627200
110	5870159 32036 117 78841 5.5400102539 1110.87383718897 1114 46 73 81052 5904376
111	5902195 30922 117 78841 5.5400102539 1110.87383718897 1114 0 0 0 0
112	5933117 30922 117 78841 5.5400102539 1110.87383718897 1114 0 0 0 0
113	5964039 32034 118 78842 5.5400108299 1110.87383783697 1114 64 73 81232 5924176
114	5996073 32034 119 78843 5.5400108799 1110.87383788697 1114 64 73 81232 5924176
115	6028107 32034 119 78843 5.5400108799 1110.87383788697 1114 64 73 81232 5924176
116	6060141 32034 120 78844 5.5400108799 1110.87383788697 1114 46 55 61180 3360760
117	6092175 283 121 77227 5.5400108799 1091.96467153568 10 28 28 280 7840
118	6092458 283 122 77228 5.5400108799 1091.96467153568 10 28 28 280 7840
119	6092741 293 123 77229 5.5400108799 1091.96467153568 10 368 368 3680 1354240
120	6093034 192883 123 77229 0.1 1091.9 10919 0 3680 33120 121881600
121	6285917 273 123 77229 5.5400108799 1091.96467153568 10 0 0 0 0
122	6286190 293 123 77229 5.5400108799 1091.96467153568 10 368 368 3680 1354240
123	6286483 192883 123 77229 0.1 1091.9 10919 0 3680 33120 121881600
124	6479366 283 123 77229 5.5400108799 1091.96467153568 10 46 46 460 21160
125	6479649 273 123 77229 5.5400108799 1091.96467153568 10 0 0 0 0
126	6479922 273 123 77229 5.5400108799 1091.96467153568 10 0 0 0 0
127	6480195 283 125 77231 5.5400114559 1091.96467211168 10 64 64 640 40960
128	6480478 283 126 77232 5.5400115059 1091.96467216168 10 64 64 640 40960
129	6480761 283 126 77232 5.5400115059 1091.96467216168 10 64 64 640 40960
130	6481044 283 127 77233 5.5400115059 1091.96467216168 10 46 46 460 21160
131	6481327 31751 136 78846 5.5400122039 1110.87383788697 1104 35 35 38640 1352400
132	6513078 4408 137 78856 5.5400122039 1111.35603801746 106 48.851314502486 97305.879442793 2410624.3039437 99249896072.968
133	6517486 4508 137 78856 5.5400122039 1111.35603801746 106 -91.780399689863 -66.118609178774 -7899.4722035439 591611.74394977
134	6521994 4386 137 78856 5.5400122039 1111.35603801746 106 5.5400122039 1111.3560380175 60378.138693509 45639736.333102
135	6526380 32661 149 78872 6.5300048667 1112.14603334675 1174 0 3 1151 2279
136	6559041 3013 152 78856 6.7400122039 1111.35603801746 105 0 105 5553 391261
137	6562054 3222 165 78878 7.87201139982 1112.56780046619 116 7 7 812 5684
138	6565276 3338 165 78878 7.87201139982 1112.56780046619 116 14 14 1624 22736
139	6568614 3338 166 78879 7.87201139982 1112.56780046619 116 80 80 9280 742400
140	6571952 196660 166 78879 0.1 1112.5 11125 0 1600 92000 74880000
141	6768612 3893 166 78879 7.87201139982 1112.56780046619 116 0 9.85203565616 165.98550010923 830.25693540048
142	6772505 3335 166 78879 7.87201139982 1112.56780046619 116 80 80 9280 742400
143	6775840 196655 166 78879 0.1 1112.5 11125 0 800 92000 73600000
144	6972495 43064 166 78893 7.87201139982 1112.58732046619 1009 -13.96195551544 0 -6757.3029813083 62354.62063259
145	7015559 12874 166 78893 7.87201139982 1112.58732046619 464 0 2 464 696
146	7028433 4804 166 78879 7.87201139982 1112.56780046619 173 0 3 81 109
147	7033237 4884 166 78879 7.87201139982 1112.56780046619 173 0 240 6480 697600
148	7038121 4731 217 76451 7.90153562715 1083.60893239342 114 15.560168593236 220814.50602777 4341962.1097956 317871871491.46
149	7042852 4851 217 76451 7.90153562715 1083.60893239342 114 -90.367405420227 -62.559723997794 -8235.0106193621 597755.99023819
150	7047703 4717 217 76451 7.90153562715 1083.60893239342 114 7.90153562715 1083.6089323934 64761.301012997 48755958.985128
151	7052420 2999 219 78807 7.95874504566 1110.85968020221 108 7 7 756 5292
152	7055419 3107 219 78807 7.95874504566 1110.85968020221 108 14 14 1512 21168
153	7058526 3107 220 78808 7.95874504566 1110.85968020221 108 80 80 8640 691200
154	7061633 196488 220 78808 0.1 1110.8 11108 0 800 85600 68480000
155	7258121 3454 220 78739 7.95874504566 1110.8247911442 107 0 13.91660115907 159.04551566556 1099.0766497568
156	7261575 3079 220 78739 7.95874504566 1110.8247911442 107 80 80 8560 684800
157	7264654 196486 220 78739 0.1 1110.8 11108 0 800 84800 67840000
158	7461140 42421 220 78917 7.95874504566 1112.58732291332 995 -13.368099508828 0 -6102.9051419294 53566.128865394
159	7503561 11892 220 78792 7.95874504566 1110.84431588334 428 0 2 428 642
160	7515453 4115 220 78808 7.95874504566 1110.85968020221 148 0 3 63 89
161	7519568 4177 220 78808 7.95874504566 1110.85968020221 148 0 240 5040 569600
162	7523745 4497 270 78867 7.98826918813 1112.05431506846 108 5.8278855370006 385316.58121165 8237561.1905276 1159519112384.8
163	7528242 4615 270 78867 7.98826918813 1112.05431506846 108 -84.473873866902 -60.141823017221 -7470.8847511849 519303.86153201
164	7532857 4497 270 78867 7.98826918813 1112.05431506846 108 7.98826918813 1112.0543150685 62801.3283721 46713447.247253
165	7537354 34487 282 76810 8.89153139982 1087.72652257246 1244 0 3 1210 2386
166	7571841 35137 284 78918 8.97826504566 1112.58732291332 1265 0 3 1263 2523
167	7606978 3225 285 78527 8.98560388484 1108.42800396548 116 7 7 812 5684
168	7610203 3341 285 78527 8.98560388484 1108.42800396548 116 14 14 1624 22736
169	7613544 3341 286 78528 8.98560388484 1108.42800396548 116 80 80 9280 742400
170	7616885 195964 286 78528 0.1 1108.4 11084 0 800 92000 73600000
171	7812849 3798 286 78777 8.98560388484 1110.84431351377 116 0 10.13531673079 174.63128401171 952.5873246982
172	7816647 3343 286 78777 8.98560388484 1110.84431351377 116 80 80 9280 742400
173	7819990 196416 286 78777 0.1 1110.8 11108 0 800 92000 73600000
174	8016406 43951 286 78883 8.98560388484 1112.56780118176 1030 -13.812753247998 0 -7695.1919199842 73089.048745632
175	8060357 12912 286 78883 8.98560388484 1112.56780118176 464 0 2 464 696
176	8073269 4554 286 78777 8.98560388484 1110.84431351377 164 0 3 72 104
177	8077823 4624 286 78777 8.98560388484 1110.84431351377 164 0 240 5760 665600
178	8082447 4750 340 78868 9.01512819875 1112.07383788697 114 29.458685159849 157375.92193211 5365621.4403191 428656224841.74
179	8087197 4865 340 78868 9.01512819875 1112.07383788697 114 -101.30786641084 -64.030617127134 -8153.8520497783 587012.24335176
180	8092062 4735 340 78868 9.01512819875 1112.07383788697 114 9.01512819875 1112.073837887 65452.606566755 51080653.433207
181	8096797 3246 343 76451 9.10153562715 1083.60893239342 113 0 114 6497 498521
182	8100043 3084 344 78867 9.18826918813 1112.05431506846 107 0 106 5671 402641
183	8103127 2646 346 78530 9.23223131471 1108.56767169842 96 7 7 672 4704
184	8105773 2742 346 78530 9.23223131471 1108.56767169842 96 14 14 1344 18816
185	8108515 2742 347 78531 9.23223131471 1108.56767169842 96 80 80 7680 614400
186	8111257 195936 347 78531 0.1 1108.5 11085 0 1600 76000 62080000
187	8307193 3091 347 78531 9.23223131471 1108.56767169842 96 0 7.19601557904 106.42757391569 429.46366999296
188	8310284 2748 347 78531 9.23223131471 1108.56767169842 96 80 80 7680 614400
189	8313032 195910 347 78531 0.1 1108.5 11085 0 800 76000 60800000
190	8508942 38416 347 78908 9.23223131471 1112.58732207446 904 -10.522820034747 0 -5154.4338826916 38101.662289378
191	8547358 10606 347 78543 9.23223131471 1108.58719169842 384 0 2 384 576
192	8557964 3661 347 78531 9.23223131471 1108.56767169842 133 0 2 47 57
193	8561625 3708 347 78531 9.23223131471 1108.56767169842 133 0 160 3760 364800
194	8565333 4021 400 78661 9.26175466985 1109.79719510387 97 33.258749454127 1887258.084359 43273920.496806 35338788530524
[...]
283	2337491411 747112 6661632 6661632 147456.1 150732.8 32768 0 0 0 0
283	2338238523 747110 6661632 6661632 150732.9 154009.6 32768 0 0 0 0
283	2338985633 747110 6661632 6661632 154009.7 157286.4 32768 0 0 0 0
283	2339732743 747110 6661632 6661632 157286.5 160563.2 32768 0 0 0 0
283	2340479853 747110 6661632 6661632 160563.3 163840 32768 0 0 0 0
283	2341226963 747112 6661632 6661632 163840.1 167116.8 32768 0 0 0 0
283	2341974075 747110 6661632 6661632 167116.9 170393.6 32768 0 0 0 0
283	2342721185 747110 6661632 6661632 170393.7 173670.4 32768 0 0 0 0
283	2343468295 747110 6661632 6661632 173670.5 176947.2 32768 0 0 0 0
283	2344215405 747110 6661632 6661632 176947.3 180224 32768 0 0 0 0
283	2344962515 747112 6661632 6661632 180224.1 183500.8 32768 0 0 0 0
283	2345709627 747110 6661632 6661632 183500.9 186777.6 32768 0 0 0 0
283	2346456737 747110 6661632 6661632 186777.7 190054.4 32768 0 0 0 0
283	2347203847 747110 6661632 6661632 190054.5 193331.2 32768 0 0 0 0
283	2347950957 747110 6661632 6661632 193331.3 196608 32768 0 0 0 0
283	2348698067 747112 6661632 6661632 196608.1 199884.8 32768 0 0 0 0
283	2349445179 747110 6661632 6661632 199884.9 203161.6 32768 0 0 0 0
283	2350192289 747110 6661632 6661632 203161.7 206438.4 32768 0 0 0 0
283	2350939399 747110 6661632 6661632 206438.5 209715.2 32768 0 0 0 0
283	2351686509 747110 6661632 6661632 209715.3 212992 32768 0 0 0 0
283	2352433619 747112 6661632 6661632 212992.1 216268.8 32768 0 0 0 0
283	2353180731 747110 6661632 6661632 216268.9 219545.6 32768 0 0 0 0
283	2353927841 747110 6661632 6661632 219545.7 222822.4 32768 0 0 0 0
283	2354674951 747110 6661632 6661632 222822.5 226099.2 32768 0 0 0 0
283	2355422061 747110 6661632 6661632 226099.3 229376 32768 0 0 0 0
283	2356169171 747112 6661632 6661632 229376.1 232652.8 32768 0 0 0 0
283	2356916283 747110 6661632 6661632 232652.9 235929.6 32768 0 0 0 0
283	2357663393 747110 6661632 6661632 235929.7 239206.4 32768 0 0 0 0
283	2358410503 747110 6661632 6661632 239206.5 242483.2 32768 0 0 0 0
283	2359157613 747110 6661632 6661632 242483.3 245760 32768 0 0 0 0
283	2359904723 747112 6661632 6661632 245760.1 249036.8 32768 0 0 0 0
283	2360651835 747110 6661632 6661632 249036.9 252313.6 32768 0 0 0 0
283	2361398945 747110 6661632 6661632 252313.7 255590.4 32768 0 0 0 0
283	2362146055 747110 6661632 6661632 255590.5 258867.2 32768 0 0 0 0
283	2362893165 747110 6661632 6661632 258867.3 262144 32768 0 0 0 0
283	2363640275 747112 6661632 6661632 262144.1 265420.8 32768 0 0 0 0
283	2364387387 747110 6661632 6661632 265420.9 268697.6 32768 0 0 0 0
283	2365134497 747110 6661632 6661632 268697.7 271974.4 32768 0 0 0 0
283	2365881607 747110 6661632 6661632 271974.5 275251.2 32768 0 0 0 0
vector 284 LoRaNetwork_moving.nsRouter.ppp[0].queue incomingDataRate:vector ETV
attr interpolationmode linear
attr recordingmode vector
attr source throughput(packetPushStarted)
attr title "incoming datarate"
attr unit bps
284	2366628940 670479 6661632 6661632 0.1 3276.8 32768 0 0 0 0
284	2367299419 681574 6661632 6661632 3276.9 6553.6 32768 0 0 0 0
284	2367980993 681574 6661632 6661632 6553.7 9830.4 32768 0 0 0 0
284	2368662567 712647 6661632 6661632 9830.5 13107.2 32768 0 0 0 0
284	2369375214 714342 6661632 6661632 13107.3 16384 32768 0 0 0 0
284	2370089556 714344 6661632 6661632 16384.1 19660.8 32768 0 0 0 0
284	2370803900 714342 6661632 6661632 19660.9 22937.6 32768 0 0 0 0
284	2371518242 714342 6661632 6661632 22937.7 26214.4 32768 0 0 0 0
284	2372232584 714342 6661632 6661632 26214.5 29491.2 32768 0 0 0 0
284	2372946926 714342 6661632 6661632 29491.3 32768 32768 0 0 0 0
284	2373661268 714344 6661632 6661632 32768.1 36044.8 32768 0 0 0 0
284	2374375612 714342 6661632 6661632 36044.9 39321.6 32768 0 0 0 0
284	2375089954 714342 6661632 6661632 39321.7 42598.4 32768 0 0 0 0
284	2375804296 714342 6661632 6661632 42598.5 45875.2 32768 0 0 0 0
284	2376518638 714342 6661632 6661632 45875.3 49152 32768 0 0 0 0
284	2377232980 714344 6661632 6661632 49152.1 52428.8 32768 0 0 0 0
284	2377947324 714342 6661632 6661632 52428.9 55705.6 32768 0 0 0 0
284	2378661666 714342 6661632 6661632 55705.7 58982.4 32768 0 0 0 0
284	2379376008 714342 6661632 6661632 58982.5 62259.2 32768 0 0 0 0
284	2380090350 714342 6661632 6661632 62259.3 65536 32768 0 0 0 0
284	2380804692 714344 6661632 6661632 65536.1 68812.8 32768 0 0 0 0
284	2381519036 714342 6661632 6661632 68812.9 72089.6 32768 0 0 0 0
284	2382233378 714342 6661632 6661632 72089.7 75366.4 32768 0 0 0 0
284	2382947720 714342 6661632 6661632 75366.5 78643.2 32768 0 0 0 0
284	2383662062 714342 6661632 6661632 78643.3 81920 32768 0 0 0 0
284	2384376404 714344 6661632 6661632 81920.1 85196.8 32768 0 0 0 0
284	2385090748 714342 6661632 6661632 85196.9 88473.6 32768 0 0 0 0
284	2385805090 714342 6661632 6661632 88473.7 91750.4 32768 0 0 0 0
284	2386519432 714342 6661632 6661632 91750.5 95027.2 32768 0 0 0 0
284	2387233774 714342 6661632 6661632 95027.3 98304 32768 0 0 0 0
284	2387948116 730153 6661632 6661632 98304.1 101580.8 32768 0 0 0 0
284	2388678269 747110 6661632 6661632 101580.9 104857.6 32768 0 0 0 0
284	2389425379 747110 6661632 6661632 104857.7 108134.4 32768 0 0 0 0
284	2390172489 747110 6661632 6661632 108134.5 111411.2 32768 0 0 0 0
284	2390919599 747110 6661632 6661632 111411.3 114688 32768 0 0 0 0
284	2391666709 747112 6661632 6661632 114688.1 117964.8 32768 0 0 0 0
284	2392413821 747110 6661632 6661632 117964.9 121241.6 32768 0 0 0 0
284	2393160931 747110 6661632 6661632 121241.7 124518.4 32768 0 0 0 0
284	2393908041 747110 6661632 6661632 124518.5 127795.2 32768 0 0 0 0
284	2394655151 747110 6661632 6661632 127795.3 131072 32768 0 0 0 0
284	2395402261 747112 6661632 6661632 131072.1 134348.8 32768 0 0 0 0
284	2396149373 747110 6661632 6661632 134348.9 137625.6 32768 0 0 0 0
284	2396896483 747110 6661632 6661632 137625.7 140902.4 32768 0 0 0 0
284	2397643593 747110 6661632 6661632 140902.5 144179.2 32768 0 0 0 0
284	2398390703 747110 6661632 6661632 144179.3 147456 32768 0 0 0 0
284	2399137813 747112 6661632 6661632 147456.1 150732.8 32768 0 0 0 0
284	2399884925 747110 6661632 6661632 150732.9 154009.6 32768 0 0 0 0
284	2400632035 747110 6661632 6661632 154009.7 157286.4 32768 0 0 0 0
284	2401379145 747110 6661632 6661632 157286.5 160563.2 32768 0 0 0 0
284	2402126255 747110 6661632 6661632 160563.3 163840 32768 0 0 0 0
284	2402873365 747112 6661632 6661632 163840.1 167116.8 32768 0 0 0 0
284	2403620477 747110 6661632 6661632 167116.9 170393.6 32768 0 0 0 0
284	2404367587 747110 6661632 6661632 170393.7 173670.4 32768 0 0 0 0
284	2405114697 747110 6661632 6661632 173670.5 176947.2 32768 0 0 0 0
284	2405861807 747110 6661632 6661632 176947.3 180224 32768 0 0 0 0
284	2406608917 747112 6661632 6661632 180224.1 183500.8 32768 0 0 0 0
284	2407356029 747110 6661632 6661632 183500.9 186777.6 32768 0 0 0 0
284	2408103139 747110 6661632 6661632 186777.7 190054.4 32768 0 0 0 0
284	2408850249 747110 6661632 6661632 190054.5 193331.2 32768 0 0 0 0
284	2409597359 747110 6661632 6661632 193331.3 196608 32768 0 0 0 0
284	2410344469 747112 6661632 6661632 196608.1 199884.8 32768 0 0 0 0
284	2411091581 747110 6661632 6661632 199884.9 203161.6 32768 0 0 0 0
284	2411838691 747110 6661632 6661632 203161.7 206438.4 32768 0 0 0 0
284	2412585801 747110 6661632 6661632 206438.5 209715.2 32768 0 0 0 0
284	2413332911 747110 6661632 6661632 209715.3 212992 32768 0 0 0 0
284	2414080021 747112 6661632 6661632 212992.1 216268.8 32768 0 0 0 0
284	2414827133 747110 6661632 6661632 216268.9 219545.6 32768 0 0 0 0
284	2415574243 747110 6661632 6661632 219545.7 222822.4 32768 0 0 0 0
284	2416321353 747110 6661632 6661632 222822.5 226099.2 32768 0 0 0 0
284	2417068463 747110 6661632 6661632 226099.3 229376 32768 0 0 0 0
284	2417815573 747112 6661632 6661632 229376.1 232652.8 32768 0 0 0 0
284	2418562685 747110 6661632 6661632 232652.9 235929.6 32768 0 0 0 0
284	2419309795 747110 6661632 6661632 235929.7 239206.4 32768 0 0 0 0
284	2420056905 747110 6661632 6661632 239206.5 242483.2 32768 0 0 0 0
284	2420804015 747110 6661632 6661632 242483.3 245760 32768 0 0 0 0
284	2421551125 747112 6661632 6661632 245760.1 249036.8 32768 0 0 0 0
284	2422298237 747110 6661632 6661632 249036.9 252313.6 32768 0 0 0 0
284	2423045347 747110 6661632 6661632 252313.7 255590.4 32768 0 0 0 0
284	2423792457 747110 6661632 6661632 255590.5 258867.2 32768 0 0 0 0
284	2424539567 747110 6661632 6661632 258867.3 262144 32768 0 0 0 0
284	2425286677 747112 6661632 6661632 262144.1 265420.8 32768 0 0 0 0
284	2426033789 747110 6661632 6661632 265420.9 268697.6 32768 0 0 0 0
284	2426780899 747110 6661632 6661632 268697.7 271974.4 32768 0 0 0 0
284	2427528009 747110 6661632 6661632 271974.5 275251.2 32768 0 0 0 0
46	2428275119 173636 6661632 6661632 277463.6 278260 7965 0 0 0 0
49	2428448755 166398 6661632 6661632 277496.8 278260 7633 0 0 0 0
58	2428615153 155826 6661632 6661632 277545.3 278260 7148 0 0 0 0
61	2428770979 155826 6661632 6661632 277545.3 278260 7148 0 0 0 0
72	2428926805 175010 6661632 6661632 277457.3 278260 8028 0 0 0 0
75	2429101815 175010 6661632 6661632 277457.3 278260 8028 0 0 0 0
84	2429276825 155826 6661632 6661632 277545.3 278260 7148 0 0 0 0
87	2429432651 155826 6661632 6661632 277545.3 278260 7148 0 0 0 0
94	2429588477 155826 6661632 6661632 277545.3 278260 7148 0 0 0 0
97	2429744303 155826 6661632 6661632 277545.3 278260 7148 0 0 0 0
109	2429900129 118355 6661632 6661632 71106.9 71649.7 5429 0 5840 5840 34105600
120	2430018484 183038 6661632 6661632 277457.3 278260 8028 0 0 0 0
123	2430201522 183038 6661632 6661632 277457.3 278260 8028 0 0 0 0
140	2430384560 436323 6661632 6661632 276346.4 278260 19137 0 0 0 0
143	2430820883 436323 6661632 6661632 276346.4 278260 19137 0 0 0 0
154	2431257206 663480 6661632 6661632 275350.1 278260 29100 0 0 0 0
157	2431920686 662978 6661632 6661632 275352.3 278260 29078 0 0 0 0
170	2432583664 243184 6661632 6661632 277193.5 278260 10666 0 0 0 0
173	2432826848 243184 6661632 6661632 277193.5 278260 10666 0 0 0 0
186	2433070032 397130 6661632 6661632 276518.3 278260 17418 0 0 0 0
189	2433467162 397130 6661632 6661632 276518.3 278260 17418 0 0 0 0
200	2433864292 648842 6661632 6661632 275414.3 278260 28458 0 0 0 0
203	2434513134 162974 6661632 6661632 277545.3 278260 7148 0 0 0 0
220	2434676108 72617 6661632 6661632 277941.6 278260 3185 0 0 0 0
223	2434748725 63702 6661632 6661632 277980.7 278260 2794 0 0 0 0
236	2434812427 454220 6661632 6661632 276267.9 278260 19922 0 0 0 0
239	2435266647 454220 6661632 6661632 276267.9 278260 19922 0 0 0 0
250	2435720867 274989 6661632 6661632 277054 278260 12061 0 0 0 0
253	2435995856 274989 6661632 6661632 277054 278260 12061 0 0 0 0
264	2436270845 567013 6661632 6661632 275773.2 278260 24869 0 0 0 0
267	2436837858 567013 6661632 6661632 275773.2 278260 24869 0 0 0 0
281	2437404871 686006 6661632 6661632 275251.3 278260 30088 0 0 0 0
282	2438090877 686006 6661632 6661632 275251.3 278260 30088 0 0 0 0
283	2438776883 686006 6661632 6661632 275251.3 278260 30088 0 0 0 0
284	2439462889 686006 6661632 6661632 275251.3 278260 30088 0 0 0 0
109	2440148895 714342 6661632 6661632 71649.8 74926.5 32768 0 0 0 0
109	2440863237 714342 6661632 6661632 74926.6 78203.3 32768 0 0 0 0
109	2441577579 714342 6661632 6661632 78203.4 81480.1 32768 0 0 0 0
109	2442291921 714344 6661632 6661632 81480.2 84756.9 32768 0 0 0 0
109	2443006265 714342 6661632 6661632 84757 88033.7 32768 0 0 0 0
109	2443720607 714342 6661632 6661632 88033.8 91310.5 32768 0 0 0 0
109	2444434949 714342 6661632 6661632 91310.6 94587.3 32768 0 0 0 0
109	2445149291 714342 6661632 6661632 94587.4 97864.1 32768 0 0 0 0
109	2445863633 725754 6661632 6661632 97864.2 101140.9 32768 0 0 0 0
109	2446589387 747110 6661632 6661632 101141 104417.7 32768 0 0 0 0
109	2447336497 747110 6661632 6661632 104417.8 107694.5 32768 0 0 0 0
109	2448083607 747110 6661632 6661632 107694.6 110971.3 32768 0 0 0 0
109	2448830717 747110 6661632 6661632 110971.4 114248.1 32768 0 0 0 0
109	2449577827 747112 6661632 6661632 114248.2 117524.9 32768 0 0 0 0
109	2450324939 747110 6661632 6661632 117525 120801.7 32768 0 0 0 0
109	2451072049 747110 6661632 6661632 120801.8 124078.5 32768 0 0 0 0
109	2451819159 747110 6661632 6661632 124078.6 127355.3 32768 0 0 0 0
109	2452566269 747110 6661632 6661632 127355.4 130632.1 32768 0 0 0 0
109	2453313379 747112 6661632 6661632 130632.2 133908.9 32768 0 0 0 0
109	2454060491 747110 6661632 6661632 133909 137185.7 32768 0 0 0 0
109	2454807601 747110 6661632 6661632 137185.8 140462.5 32768 0 0 0 0
109	2455554711 747110 6661632 6661632 140462.6 143739.3 32768 0 0 0 0
109	2456301821 747110 6661632 6661632 143739.4 147016.1 32768 0 0 0 0
109	2457048931 747112 6661632 6661632 147016.2 150292.9 32768 0 0 0 0
109	2457796043 747110 6661632 6661632 150293 153569.7 32768 0 0 0 0
109	2458543153 747110 6661632 6661632 153569.8 156846.5 32768 0 0 0 0
109	2459290263 747110 6661632 6661632 156846.6 160123.3 32768 0 0 0 0
109	2460037373 747110 6661632 6661632 160123.4 163400.1 32768 0 0 0 0
109	2460784483 747112 6661632 6661632 163400.2 166676.9 32768 0 0 0 0
109	2461531595 747110 6661632 6661632 166677 169953.7 32768 0 0 0 0
109	2462278705 747110 6661632 6661632 169953.8 173230.5 32768 0 0 0 0
109	2463025815 747110 6661632 6661632 173230.6 176507.3 32768 0 0 0 0
109	2463772925 747110 6661632 6661632 176507.4 179784.1 32768 0 0 0 0
109	2464520035 747112 6661632 6661632 179784.2 183060.9 32768 0 0 0 0
109	2465267147 747110 6661632 6661632 183061 186337.7 32768 0 0 0 0
109	2466014257 747110 6661632 6661632 186337.8 189614.5 32768 0 0 0 0
109	2466761367 747110 6661632 6661632 189614.6 192891.3 32768 0 0 0 0
109	2467508477 747110 6661632 6661632 192891.4 196168.1 32768 0 0 0 0
109	2468255587 747112 6661632 6661632 196168.2 199444.9 32768 0 0 0 0
109	2469002699 747110 6661632 6661632 199445 202721.7 32768 0 0 0 0
109	2469749809 747110 6661632 6661632 202721.8 205998.5 32768 0 0 0 0
109	2470496919 747110 6661632 6661632 205998.6 209275.3 32768 0 0 0 0
109	2471244029 747110 6661632 6661632 209275.4 212552.1 32768 0 0 0 0
109	2471991139 747112 6661632 6661632 212552.2 215828.9 32768 0 0 0 0
109	2472738251 747110 6661632 6661632 215829 219105.7 32768 0 0 0 0
109	2473485361 747110 6661632 6661632 219105.8 222382.5 32768 0 0 0 0
109	2474232471 747110 6661632 6661632 222382.6 225659.3 32768 0 0 0 0
109	2474979581 747110 6661632 6661632 225659.4 228936.1 32768 0 0 0 0
109	2475726691 747112 6661632 6661632 228936.2 232212.9 32768 0 0 0 0
109	2476473803 747110 6661632 6661632 232213 235489.7 32768 0 0 0 0
109	2477220913 747110 6661632 6661632 235489.8 238766.5 32768 0 0 0 0
109	2477968023 747110 6661632 6661632 238766.6 242043.3 32768 0 0 0 0
109	2478715133 747110 6661632 6661632 242043.4 245320.1 32768 0 0 0 0
109	2479462243 747112 6661632 6661632 245320.2 248596.9 32768 0 0 0 0
109	2480209355 747110 6661632 6661632 248597 251873.7 32768 0 0 0 0
109	2480956465 747110 6661632 6661632 251873.8 255150.5 32768 0 0 0 0
109	2481703575 747110 6661632 6661632 255150.6 258427.3 32768 0 0 0 0
109	2482450685 747110 6661632 6661632 258427.4 261704.1 32768 0 0 0 0
109	2483197795 747112 6661632 6661632 261704.2 264980.9 32768 0 0 0 0
109	2483944907 747110 6661632 6661632 264981 268257.7 32768 0 0 0 0
109	2484692017 747110 6661632 6661632 268257.8 271534.5 32768 0 0 0 0
109	2485439127 747110 6661632 6661632 271534.6 274811.3 32768 0 0 0 0
109	2486186237 747110 6661632 6661632 274811.4 278088.1 32768 0 0 0 0
106	2486933347 714345 6661632 6661632 71106.9 74383.6 32768 0 5840 5840 34105600
106	2487647692 714342 6661632 6661632 74383.7 77660.4 32768 0 0 0 0
106	2488362034 714342 6661632 6661632 77660.5 80937.2 32768 0 0 0 0
106	2489076376 714342 6661632 6661632 80937.3 84214 32768 0 0 0 0
106	2489790718 714344 6661632 6661632 84214.1 87490.8 32768 0 0 0 0
106	2490505062 714342 6661632 6661632 87490.9 90767.6 32768 0 0 0 0
106	2491219404 714342 6661632 6661632 90767.7 94044.4 32768 0 0 0 0
106	2491933746 714342 6661632 6661632 94044.5 97321.2 32768 0 0 0 0
106	2492648088 720323 6661632 6661632 97321.3 100598 32768 0 0 0 0
106	2493368411 747112 6661632 6661632 100598.1 103874.8 32768 0 0 0 0
106	2494115523 747110 6661632 6661632 103874.9 107151.6 32768 0 0 0 0
106	2494862633 747110 6661632 6661632 107151.7 110428.4 32768 0 0 0 0
106	2495609743 747110 6661632 6661632 110428.5 113705.2 32768 0 0 0 0
106	2496356853 747110 6661632 6661632 113705.3 116982 32768 0 0 0 0
106	2497103963 747112 6661632 6661632 116982.1 120258.8 32768 0 0 0 0
106	2497851075 747110 6661632 6661632 120258.9 123535.6 32768 0 0 0 0
106	2498598185 747110 6661632 6661632 123535.7 126812.4 32768 0 0 0 0
106	2499345295 747110 6661632 6661632 126812.5 130089.2 32768 0 0 0 0
106	2500092405 747110 6661632 6661632 130089.3 133366 32768 0 0 0 0
106	2500839515 747112 6661632 6661632 133366.1 136642.8 32768 0 0 0 0
106	2501586627 747110 6661632 6661632 136642.9 139919.6 32768 0 0 0 0
106	2502333737 747110 6661632 6661632 139919.7 143196.4 32768 0 0 0 0
106	2503080847 747110 6661632 6661632 143196.5 146473.2 32768 0 0 0 0
106	2503827957 747110 6661632 6661632 146473.3 149750 32768 0 0 0 0
106	2504575067 747112 6661632 6661632 149750.1 153026.8 32768 0 0 0 0
106	2505322179 747110 6661632 6661632 153026.9 156303.6 32768 0 0 0 0
106	2506069289 747110 6661632 6661632 156303.7 159580.4 32768 0 0 0 0
106	2506816399 747110 6661632 6661632 159580.5 162857.2 32768 0 0 0 0
106	2507563509 747110 6661632 6661632 162857.3 166134 32768 0 0 0 0
106	2508310619 747112 6661632 6661632 166134.1 169410.8 32768 0 0 0 0
106	2509057731 747110 6661632 6661632 169410.9 172687.6 32768 0 0 0 0
106	2509804841 747110 6661632 6661632 172687.7 175964.4 32768 0 0 0 0
106	2510551951 747110 6661632 6661632 175964.5 179241.2 32768 0 0 0 0
106	2511299061 747110 6661632 6661632 179241.3 182518 32768 0 0 0 0
106	2512046171 747112 6661632 6661632 182518.1 185794.8 32768 0 0 0 0
106	2512793283 747110 6661632 6661632 185794.9 189071.6 32768 0 0 0 0
106	2513540393 747110 6661632 6661632 189071.7 192348.4 32768 0 0 0 0
106	2514287503 747110 6661632 6661632 192348.5 195625.2 32768 0 0 0 0
106	2515034613 747110 6661632 6661632 195625.3 198902 32768 0 0 0 0
106	2515781723 747112 6661632 6661632 198902.1 202178.8 32768 0 0 0 0
106	2516528835 747110 6661632 6661632 202178.9 205455.6 32768 0 0 0 0
106	2517275945 747110 6661632 6661632 205455.7 208732.4 32768 0 0 0 0
106	2518023055 747110 6661632 6661632 208732.5 212009.2 32768 0 0 0 0
106	2518770165 747110 6661632 6661632 212009.3 215286 32768 0 0 0 0
106	2519517275 747112 6661632 6661632 215286.1 218562.8 32768 0 0 0 0
106	2520264387 747110 6661632 6661632 218562.9 221839.6 32768 0 0 0 0
106	2521011497 747110 6661632 6661632 221839.7 225116.4 32768 0 0 0 0
106	2521758607 747110 6661632 6661632 225116.5 228393.2 32768 0 0 0 0
106	2522505717 747110 6661632 6661632 228393.3 231670 32768 0 0 0 0
106	2523252827 747112 6661632 6661632 231670.1 234946.8 32768 0 0 0 0
106	2523999939 747110 6661632 6661632 234946.9 238223.6 32768 0 0 0 0
106	2524747049 747110 6661632 6661632 238223.7 241500.4 32768 0 0 0 0
106	2525494159 747110 6661632 6661632 241500.5 244777.2 32768 0 0 0 0
106	2526241269 747110 6661632 6661632 244777.3 248054 32768 0 0 0 0
106	2526988379 747112 6661632 6661632 248054.1 251330.8 32768 0 0 0 0
106	2527735491 747110 6661632 6661632 251330.9 254607.6 32768 0 0 0 0
106	2528482601 747110 6661632 6661632 254607.7 257884.4 32768 0 0 0 0
106	2529229711 747110 6661632 6661632 257884.5 261161.2 32768 0 0 0 0
106	2529976821 747110 6661632 6661632 261161.3 264438 32768 0 0 0 0
106	2530723931 747112 6661632 6661632 264438.1 267714.8 32768 0 0 0 0
106	2531471043 747110 6661632 6661632 267714.9 270991.6 32768 0 0 0 0
106	2532218153 747110 6661632 6661632 270991.7 274268.4 32768 0 0 0 0
106	2532965263 747110 6661632 6661632 274268.5 277545.2 32768 0 0 0 0
106	2533712373 162974 6661632 6661632 277545.3 278260 7148 0 0 0 0
109	2533875347 39193 6661632 6661632 278088.2 278260 1719 0 0 0 0

